@<TRIPOS>MOLECULE
box.pdb
 43000 32980 0 0 0
SMALL
GASTEIGER

@<TRIPOS>ATOM
      1  O65      100.3090  141.3660  130.3220 O.2     1  MOL1       -0.2510
      2  O65       98.5150  142.3320  131.0930 O.3     1  MOL1       -0.4806
      3  C65       99.1100  141.4330  130.2650 C.2     1  MOL1        0.3047
      4  C65       97.9470  140.7660  129.3970 C.3     1  MOL1        0.0448
      5  C65       97.6250  139.3280  128.7790 C.3     1  MOL1       -0.0430
      6  C65       96.2530  138.4230  128.7720 C.3     1  MOL1       -0.0515
      7  C65       96.4970  136.8680  128.2710 C.3     1  MOL1       -0.0403
      8  S65       94.9660  133.7880  132.5560 S.3     1  MOL1       -0.0928
      9  C65       95.0330  133.7710  130.5010 C.3     1  MOL1        0.0050
     10  C66       94.9190  134.7260  129.1480 C.3     1  MOL1       -0.0305
     11  C66       91.1050  145.2110  138.9090 C.2     1  MOL1        0.3129
     12  C66       90.0630  145.1410  140.1270 C.3     1  MOL1        0.0622
     13  C66       90.1800  144.0900  141.2450 C.3     1  MOL1       -0.0370
     14  C66       90.1480  146.3600  141.0010 C.3     1  MOL1       -0.0497
     15  O66       92.2940  145.3370  138.9860 O.2     1  MOL1       -0.2502
     16  O66       90.4250  145.1080  137.7090 O.3     1  MOL1       -0.4605
     17  C66       90.8960  145.1360  136.2990 C.3     1  MOL1        0.1290
     18  C66       90.3890  144.1360  135.2020 C.3     1  MOL1        0.1341
     19  C66       91.1150  142.8860  135.5020 C.3     1  MOL1       -0.0244
     20  C67       87.3350  137.7170  131.0580 C.3     1  MOL1        0.0162
     21  C67       87.8710  136.2720  131.6110 C.3     1  MOL1       -0.0305
     22  C67       87.7410  135.0100  132.6120 C.3     1  MOL1        0.0050
     23  S67       86.2190  133.9520  132.9470 S.3     1  MOL1       -0.0928
     24  C67       86.6420  139.2600  131.0780 C.3     1  MOL1       -0.0403
     25  C67       86.0430  140.7140  131.5320 C.3     1  MOL1       -0.0515
     26  C67       86.0750  142.0650  132.4290 C.3     1  MOL1       -0.0429
     27  C67       86.9720  143.2090  133.1300 C.3     1  MOL1        0.0450
     28  C67       88.3910  143.8830  133.4540 C.2     1  MOL1        0.3074
     29  O67       89.0750  143.6340  134.6190 O.3     1  MOL1       -0.4582
     30  O68       88.7820  144.6940  132.6810 O.2     1  MOL1       -0.2508
     31  C68       96.1670  135.1570  128.3900 C.3     1  MOL1        0.0162
     32  C68       85.4770  140.6550  143.4920 C.2     1  MOL1        0.3344
     33  C68       84.0720  140.5650  144.0930 C.2     1  MOL1        0.0264
     34  C68       83.2700  139.5060  143.9080 C.2     1  MOL1       -0.0890
     35  C68       83.4200  141.6740  144.8750 C.3     1  MOL1       -0.0335
     36  O68       86.1510  141.6230  143.7340 O.2     1  MOL1       -0.2453
     37  O68       85.9520  139.6520  142.6850 O.3     1  MOL1       -0.4577
     38  C68       86.9920  139.3930  141.6460 C.3     1  MOL1        0.1293
     39  C68       86.8810  139.1300  140.0620 C.3     1  MOL1        0.1341
     40  C69       88.3270  138.5860  139.8670 C.3     1  MOL1       -0.0244
     41  C69       85.0330  132.1530  135.0480 C.3     1  MOL1        0.0162
     42  C69       83.9610  131.2990  134.3760 C.3     1  MOL1       -0.0313
     43  C69       82.7660  131.3930  135.2890 C.3     1  MOL1       -0.0056
     44  S69       81.2710  131.9930  134.5390 S.3     1  MOL1       -0.1641
     45  C69       84.9760  132.1300  136.7280 C.3     1  MOL1       -0.0403
     46  C69       84.6970  133.2490  137.9710 C.3     1  MOL1       -0.0515
     47  C69       84.3150  134.6730  138.8140 C.3     1  MOL1       -0.0429
     48  C69       83.9720  136.3200  139.1760 C.3     1  MOL1        0.0450
     49  C69       84.3460  137.9600  138.8800 C.2     1  MOL1        0.3074
     50  O70       85.5610  138.7030  139.2860 O.3     1  MOL1       -0.4582
     51  O70       83.5470  138.6320  138.3190 O.2     1  MOL1       -0.2508
     52  C70       80.2710  132.5600  135.9740 C.3     1  MOL1       -0.0181
     53  S70       86.6080  132.2170  134.0610 S.3     1  MOL1       -0.0897
     54  C70       98.2710  145.9990  130.7130 C.2     1  MOL1        0.3344
     55  C70       98.5080  146.8180  129.5390 C.2     1  MOL1        0.0264
     56  C70       97.5160  146.9360  128.6340 C.2     1  MOL1       -0.0890
     57  C70       99.7970  147.5550  129.4760 C.3     1  MOL1       -0.0335
     58  O70       99.1140  145.7570  131.5470 O.2     1  MOL1       -0.2453
     59  O70       97.0240  145.5310  130.9040 O.3     1  MOL1       -0.4577
     60  C71       96.4160  145.8140  132.1430 C.3     1  MOL1        0.1293
     61  C71       96.8620  144.9660  133.2800 C.3     1  MOL1        0.1341
     62  C71       96.0190  145.2850  134.5060 C.3     1  MOL1       -0.0244
     63  S71       94.6620  135.4670  133.8140 S.3     1  MOL1       -0.0897
     64  C71       94.4160  137.2590  133.0970 C.3     1  MOL1        0.0162
     65  C71       93.6460  137.9570  131.8410 C.3     1  MOL1       -0.0305
     66  C71       92.3610  138.0870  130.8550 C.3     1  MOL1        0.0050
     67  S71       90.5980  138.0170  130.2680 S.3     1  MOL1       -0.0928
     68  C71       94.6160  138.0340  134.3930 C.3     1  MOL1       -0.0403
     69  C71       95.0430  139.5170  134.3590 C.3     1  MOL1       -0.0515
     70  C72       96.3760  140.3040  134.5010 C.3     1  MOL1       -0.0429
     71  C72       97.0000  141.3670  133.5510 C.3     1  MOL1        0.0450
     72  C72       96.2820  142.6060  133.0480 C.2     1  MOL1        0.3074
     73  O72       97.2010  143.5900  133.0560 O.3     1  MOL1       -0.4582
     74  O72       95.1350  142.7470  132.7790 O.2     1  MOL1       -0.2508
     75  S72       88.6770  137.8900  129.7520 S.3     1  MOL1       -0.0897
     76  C72       84.5290  149.4380  155.1560 C.3     1  MOL1       -0.0559
     77  C72       84.4900  149.0270  153.7050 C.3     1  MOL1       -0.0533
     78  C72       83.7610  147.8160  153.1150 C.3     1  MOL1       -0.0531
     79  C72       84.1290  147.8300  151.6260 C.3     1  MOL1       -0.0531
     80  C73       83.2760  147.3730  150.4410 C.3     1  MOL1       -0.0531
     81  C73       83.7110  148.1570  149.1710 C.3     1  MOL1       -0.0531
     82  C73       84.2070  147.2200  148.0820 C.3     1  MOL1       -0.0531
     83  C73       85.5710  147.4070  147.4230 C.3     1  MOL1       -0.0530
     84  C73       85.6490  146.2630  146.4270 C.3     1  MOL1       -0.0500
     85  C73       86.8520  145.4390  146.0560 C.3     1  MOL1       -0.0185
     86  C73       86.4450  144.6030  144.8930 C.3     1  MOL1        0.0925
     87  C73       85.3310  150.7460  155.2440 C.3     1  MOL1       -0.0653
     88  C73       89.2280  142.9080  143.3570 C.3     1  MOL1        0.0537
     89  C73       88.3160  143.2070  144.5150 C.2     1  MOL1        0.3099
     90  O74       87.5800  144.2640  144.1260 O.3     1  MOL1       -0.4644
     91  O74       88.1050  142.6640  145.5720 O.2     1  MOL1       -0.2505
     92  C74       90.6200  142.2610  143.4730 C.3     1  MOL1       -0.0523
     93  C74       89.1700  144.1430  142.3990 C.3     1  MOL1       -0.0394
     94  C74       88.6700  145.1780  139.5920 C.3     1  MOL1       -0.0497
     95  O74       97.4620  122.0590  113.5330 O.2     1  MOL1       -0.2510
     96  O74       99.1290  121.6870  115.0100 O.3     1  MOL1       -0.4806
     97  C74       98.4490  122.4250  114.0920 C.2     1  MOL1        0.3047
     98  C74       99.0750  123.7950  114.0070 C.3     1  MOL1        0.0448
     99  C74       99.0800  124.5550  112.6630 C.3     1  MOL1       -0.0430
    100  C75       98.4710  125.9120  112.9320 C.3     1  MOL1       -0.0515
    101  C75       98.7350  127.1400  112.0770 C.3     1  MOL1       -0.0403
    102  S75       98.3580  130.5080  115.8270 S.3     1  MOL1       -0.0928
    103  C75       97.3800  129.5560  114.6950 C.3     1  MOL1        0.0050
    104  C75       98.1120  128.3810  114.1470 C.3     1  MOL1       -0.0305
    105  C75       90.6990  130.3170  125.2140 C.2     1  MOL1        0.3129
    106  C75       89.9610  128.9800  125.0200 C.3     1  MOL1        0.0622
    107  C75       90.7050  128.2150  123.9460 C.3     1  MOL1       -0.0370
    108  C75       90.3330  128.1940  126.2760 C.3     1  MOL1       -0.0497
    109  O75       91.1520  130.5720  126.2940 O.2     1  MOL1       -0.2502
    110  O76       90.9320  131.1050  124.0820 O.3     1  MOL1       -0.4605
    111  C76       89.8780  131.6520  123.2670 C.3     1  MOL1        0.1290
    112  C76       90.1160  132.8070  122.2870 C.3     1  MOL1        0.1341
    113  C76       90.7860  134.1660  122.4350 C.3     1  MOL1       -0.0244
    114  C76       95.9510  134.2190  121.1260 C.3     1  MOL1        0.0162
    115  C76       96.2340  135.6930  121.8990 C.3     1  MOL1       -0.0305
    116  C76       96.6830  136.9870  122.8370 C.3     1  MOL1        0.0050
    117  S76       97.5530  137.4470  124.4030 S.3     1  MOL1       -0.0928
    118  C76       94.4790  133.8260  121.0710 C.3     1  MOL1       -0.0403
    119  C76       94.1970  132.2700  121.0190 C.3     1  MOL1       -0.0515
    120  C77       93.1500  131.5360  120.1180 C.3     1  MOL1       -0.0429
    121  C77       91.9800  132.1440  119.3180 C.3     1  MOL1        0.0450
    122  C77       90.7830  132.5950  119.9970 C.2     1  MOL1        0.3074
    123  O77       90.9580  132.2570  121.2790 O.3     1  MOL1       -0.4582
    124  O77       89.8260  133.1720  119.5340 O.2     1  MOL1       -0.2508
    125  S77       99.4560  129.8100  112.2520 S.3     1  MOL1       -0.0897
    126  C77       98.2660  128.4780  112.6500 C.3     1  MOL1        0.0162
    127  C77      103.5510  142.5510  127.7360 C.2     1  MOL1        0.3344
    128  C77      104.2840  143.5880  128.4080 C.2     1  MOL1        0.0264
    129  C77      103.6350  144.6730  128.8550 C.2     1  MOL1       -0.0890
    130  C78      105.7350  143.3350  128.4780 C.3     1  MOL1       -0.0335
    131  O78      104.0800  141.7720  126.9740 O.2     1  MOL1       -0.2453
    132  O78      102.2390  142.4780  128.0250 O.3     1  MOL1       -0.4577
    133  C78      101.4620  141.7020  127.1580 C.3     1  MOL1        0.1293
    134  C78      100.8820  140.4440  127.6450 C.3     1  MOL1        0.1341
    135  C78       99.7540  140.1680  126.5460 C.3     1  MOL1       -0.0244
    136  C78       98.8690  135.0150  126.2380 C.3     1  MOL1        0.0162
    137  C78       98.9780  133.4680  126.1630 C.3     1  MOL1       -0.0305
    138  C78       99.4460  132.6870  127.3530 C.3     1  MOL1        0.0050
    139  S78       98.0360  132.0900  128.2320 S.3     1  MOL1       -0.0928
    140  C79      100.1730  135.7040  125.9410 C.3     1  MOL1       -0.0403
    141  C79      101.1460  135.4030  127.1630 C.3     1  MOL1       -0.0515
    142  C79      102.5470  136.0240  127.7400 C.3     1  MOL1       -0.0429
    143  C79      103.0750  137.3330  128.6170 C.3     1  MOL1        0.0450
    144  C79      102.9730  138.9340  128.4230 C.2     1  MOL1        0.3074
    145  O79      101.6810  139.4140  128.3950 O.3     1  MOL1       -0.4582
    146  O79      103.9670  139.5770  128.2440 O.2     1  MOL1       -0.2508
    147  S79       97.5500  133.9830  128.8260 S.3     1  MOL1       -0.0897
    148  S79       97.3190  135.9530  125.7660 S.3     1  MOL1       -0.0897
    149  C79       95.4110  126.5570  113.6190 C.2     1  MOL1        0.3344
    150  C80       95.6660  126.2780  112.1990 C.2     1  MOL1        0.0264
    151  C80       95.5510  127.3610  111.4620 C.2     1  MOL1       -0.0890
    152  C80       96.1470  124.9890  111.5810 C.3     1  MOL1       -0.0335
    153  O80       95.6670  125.7390  114.4620 O.2     1  MOL1       -0.2453
    154  O80       94.8620  127.7530  114.0420 O.3     1  MOL1       -0.4577
    155  C80       94.1830  127.5720  115.2790 C.3     1  MOL1        0.1293
    156  C80       94.8790  127.9810  116.4990 C.3     1  MOL1        0.1341
    157  C80       93.8300  128.0930  117.6250 C.3     1  MOL1       -0.0244
    158  S80      100.1860  130.7610  114.9330 S.3     1  MOL1       -0.0897
    159  C80      100.9210  131.3180  116.4920 C.3     1  MOL1        0.0162
    160  C81      100.2790  132.7170  116.7120 C.3     1  MOL1       -0.0305
    161  C81       99.6080  133.1620  118.0010 C.3     1  MOL1        0.0050
    162  S81       97.7820  132.8830  117.9400 S.3     1  MOL1       -0.0928
    163  C81      100.7140  130.2110  117.5300 C.3     1  MOL1       -0.0403
    164  C81      100.7980  128.7190  117.1080 C.3     1  MOL1       -0.0515
    165  C81       99.7010  127.7180  117.6450 C.3     1  MOL1       -0.0429
    166  C81       98.3090  127.0100  117.5850 C.3     1  MOL1        0.0450
    167  C81       96.9240  127.6060  117.6100 C.2     1  MOL1        0.3074
    168  O81       96.1540  127.2880  116.5510 O.3     1  MOL1       -0.4582
    169  O81       96.4520  128.1360  118.5680 O.2     1  MOL1       -0.2508
    170  S82       96.3670  133.3980  119.3990 S.3     1  MOL1       -0.0897
    171  C82       82.3680  115.8950  120.0860 C.3     1  MOL1       -0.0559
    172  C82       83.5210  116.3250  120.9490 C.3     1  MOL1       -0.0533
    173  C82       84.5020  117.1010  120.0800 C.3     1  MOL1       -0.0531
    174  C82       84.4000  118.5880  120.4200 C.3     1  MOL1       -0.0531
    175  C82       85.2000  119.6400  119.6080 C.3     1  MOL1       -0.0531
    176  C82       85.6730  120.5890  120.6660 C.3     1  MOL1       -0.0531
    177  C82       86.7430  121.6490  120.7540 C.3     1  MOL1       -0.0531
    178  C82       87.2060  122.7670  119.8710 C.3     1  MOL1       -0.0530
    179  C82       88.6430  122.6010  119.4570 C.3     1  MOL1       -0.0500
    180  C83       89.6210  122.3290  120.6030 C.3     1  MOL1       -0.0185
    181  C83       89.2430  122.8100  121.9970 C.3     1  MOL1        0.0925
    182  C83       81.2800  115.1960  120.8090 C.3     1  MOL1       -0.0653
    183  C83       89.4500  126.2280  123.1600 C.3     1  MOL1        0.0537
    184  C83       89.1840  124.7700  123.3190 C.2     1  MOL1        0.3099
    185  O83       89.2490  124.2260  122.0870 O.3     1  MOL1       -0.4644
    186  O83       88.9550  124.1580  124.3400 O.2     1  MOL1       -0.2505
    187  C83       89.8030  126.7100  121.7520 C.3     1  MOL1       -0.0523
    188  C83       90.6120  126.6860  124.0070 C.3     1  MOL1       -0.0394
    189  C83       88.4590  129.2000  124.8550 C.3     1  MOL1       -0.0497
    190  O84      118.4060  139.3430  105.3530 O.2     1  MOL1       -0.2510
    191  O84      117.9420  137.8660  106.9830 O.3     1  MOL1       -0.4806
    192  C84      117.7140  138.4760  105.7800 C.2     1  MOL1        0.3047
    193  C84      116.4480  137.9120  105.1380 C.3     1  MOL1        0.0448
    194  C84      116.1280  138.4620  103.6980 C.3     1  MOL1       -0.0430
    195  C84      114.8410  138.1930  102.7450 C.3     1  MOL1       -0.0516
    196  C84      113.5390  137.8860  101.8140 C.3     1  MOL1       -0.0411
    197  S84      109.9750  134.3640  103.6540 S.3     1  MOL1       -0.0928
    198  C84      110.3080  135.0700  102.0010 C.3     1  MOL1        0.0049
    199  C84      111.2770  136.2010  102.4240 C.3     1  MOL1       -0.0313
    200  C85      109.1890  138.9520  115.2290 C.2     1  MOL1        0.3129
    201  C85      108.1530  140.0230  115.4580 C.3     1  MOL1        0.0622
    202  C85      106.8430  139.6860  116.2230 C.3     1  MOL1       -0.0370
    203  C85      108.9310  141.2510  115.7530 C.3     1  MOL1       -0.0497
    204  O85      110.3640  139.0180  115.4950 O.2     1  MOL1       -0.2502
    205  O85      108.6060  137.9490  114.5120 O.3     1  MOL1       -0.4605
    206  C85      109.5050  137.2700  113.6540 C.3     1  MOL1        0.1290
    207  C85      109.1930  137.3090  112.2120 C.3     1  MOL1        0.1341
    208  C85      110.4170  136.6610  111.6040 C.3     1  MOL1       -0.0244
    209  C85      107.3940  131.8180  111.6940 C.3     1  MOL1        0.0162
    210  C86      107.6610  130.3310  111.4790 C.3     1  MOL1       -0.0305
    211  C86      106.3570  129.6330  111.1540 C.3     1  MOL1        0.0050
    212  S86      106.1020  128.8350  109.5880 S.3     1  MOL1       -0.0928
    213  C86      108.0090  132.2510  112.9820 C.3     1  MOL1       -0.0403
    214  C86      108.3140  133.7300  113.1430 C.3     1  MOL1       -0.0515
    215  C86      107.0200  134.5490  113.1440 C.3     1  MOL1       -0.0429
    216  C86      106.5460  134.9800  111.7550 C.3     1  MOL1        0.0450
    217  C86      107.6780  135.6930  111.1170 C.2     1  MOL1        0.3074
    218  O86      108.0110  136.5370  112.1030 O.3     1  MOL1       -0.4582
    219  O86      108.1880  135.5900  110.0290 O.2     1  MOL1       -0.2508
    220  S87      111.7390  137.1460   99.8130 S.3     1  MOL1       -0.1607
    221  C87      112.3490  136.8500  101.4920 C.3     1  MOL1        0.0058
    222  C87      111.2880  135.5290   99.2420 C.3     1  MOL1       -0.0178
    223  C87      102.8960  133.5120  119.1170 C.2     1  MOL1        0.3344
    224  C87      102.8210  132.1660  119.6950 C.2     1  MOL1        0.0264
    225  C87      103.3260  131.1500  118.9850 C.2     1  MOL1       -0.0890
    226  C87      102.1520  131.9810  121.0300 C.3     1  MOL1       -0.0335
    227  O87      102.3760  134.4350  119.7020 O.2     1  MOL1       -0.2453
    228  O87      103.5050  133.7330  117.8980 O.3     1  MOL1       -0.4577
    229  C87      103.3570  135.0750  117.4100 C.3     1  MOL1        0.1293
    230  C88      103.4460  135.2210  115.9040 C.3     1  MOL1        0.1341
    231  C88      104.5020  136.0940  115.1530 C.3     1  MOL1       -0.0244
    232  C88      103.1850  129.1950  110.0330 C.3     1  MOL1        0.0162
    233  C88      101.9030  128.6090  109.3720 C.3     1  MOL1       -0.0305
    234  C88      100.4510  128.5900  109.8040 C.3     1  MOL1        0.0050
    235  S88       99.4770  130.0490  110.2520 S.3     1  MOL1       -0.0928
    236  C88      102.9700  130.2730  111.1130 C.3     1  MOL1       -0.0403
    237  C88      103.5410  130.1350  112.5180 C.3     1  MOL1       -0.0515
    238  C88      104.0650  131.4780  113.0070 C.3     1  MOL1       -0.0429
    239  C88      102.9500  132.3280  113.5570 C.3     1  MOL1        0.0450
    240  C89      103.5180  133.6570  113.9610 C.2     1  MOL1        0.3074
    241  O89      103.2010  133.9310  115.2650 O.3     1  MOL1       -0.4582
    242  O89      104.1350  134.3510  113.2010 O.2     1  MOL1       -0.2508
    243  S89      104.4580  127.9310  110.3400 S.3     1  MOL1       -0.0897
    244  C89      116.2360  140.7750  109.2360 C.2     1  MOL1        0.3344
    245  C89      116.6160  141.6970  108.1750 C.2     1  MOL1        0.0264
    246  C89      116.6520  141.1170  106.9820 C.2     1  MOL1       -0.0890
    247  C89      116.9120  143.1410  108.3910 C.3     1  MOL1       -0.0335
    248  O89      116.3120  141.0690  110.4090 O.2     1  MOL1       -0.2453
    249  O89      115.7430  139.5410  108.8530 O.3     1  MOL1       -0.4577
    250  C90      114.5680  139.1040  109.5380 C.3     1  MOL1        0.1293
    251  C90      114.6350  137.6260  109.6860 C.3     1  MOL1        0.1341
    252  C90      114.2170  136.9910  111.0410 C.3     1  MOL1       -0.0244
    253  S90      109.0710  132.5150  103.8180 S.3     1  MOL1       -0.0897
    254  C90      108.8590  132.8600  105.5890 C.3     1  MOL1        0.0162
    255  C90      107.7500  132.1760  106.3840 C.3     1  MOL1       -0.0305
    256  C90      107.7250  132.8730  107.7260 C.3     1  MOL1        0.0050
    257  S90      106.6970  132.1010  108.9690 S.3     1  MOL1       -0.0928
    258  C90      110.1990  132.7760  106.3040 C.3     1  MOL1       -0.0403
    259  C90      110.6190  134.1810  106.7580 C.3     1  MOL1       -0.0515
    260  C91      111.5210  134.3440  107.9680 C.3     1  MOL1       -0.0429
    261  C91      112.6760  135.3320  107.8120 C.3     1  MOL1        0.0450
    262  C91      112.8530  136.5540  108.6710 C.2     1  MOL1        0.3074
    263  O91      114.1700  136.8480  108.5800 O.3     1  MOL1       -0.4582
    264  O91      112.0960  137.1970  109.3420 O.2     1  MOL1       -0.2508
    265  S91      108.0270  132.7560  110.3410 S.3     1  MOL1       -0.0897
    266  C91      106.5930  150.3540  125.7600 C.3     1  MOL1       -0.0559
    267  C91      105.2850  149.6910  125.3820 C.3     1  MOL1       -0.0533
    268  C91      105.6960  148.6160  124.3710 C.3     1  MOL1       -0.0531
    269  C91      104.5260  148.2490  123.5430 C.3     1  MOL1       -0.0531
    270  C92      104.5570  147.0280  122.6840 C.3     1  MOL1       -0.0531
    271  C92      103.1060  146.8720  122.2290 C.3     1  MOL1       -0.0531
    272  C92      102.6000  145.4910  121.8430 C.3     1  MOL1       -0.0531
    273  C92      103.5760  144.3330  121.6150 C.3     1  MOL1       -0.0530
    274  C92      103.0500  143.0000  122.0610 C.3     1  MOL1       -0.0500
    275  C92      103.2450  141.9770  120.9890 C.3     1  MOL1       -0.0185
    276  C92      103.5830  140.5560  121.3480 C.3     1  MOL1        0.0925
    277  C92      107.0400  150.9600  127.0620 C.3     1  MOL1       -0.0653
    278  C92      106.4600  140.2060  119.1580 C.3     1  MOL1        0.0537
    279  C92      105.2470  139.5960  119.7800 C.2     1  MOL1        0.3099
    280  O93      104.8620  140.4320  120.7460 O.3     1  MOL1       -0.4644
    281  O93      104.7310  138.5530  119.4870 O.2     1  MOL1       -0.2505
    282  C93      106.8950  141.4540  119.9710 C.3     1  MOL1       -0.0523
    283  C93      106.2730  140.2530  117.5670 C.3     1  MOL1       -0.0394
    284  C93      107.6190  140.2040  114.0580 C.3     1  MOL1       -0.0497
    285 5H93       97.5830  142.4150  130.8860 H       1  MOL1        0.2951
    286 6H93       98.0650  141.4220  128.5460 H       1  MOL1        0.0377
    287 7H93       97.1320  141.1510  129.9690 H       1  MOL1        0.0377
    288 8H93       98.4440  138.7050  129.0560 H       1  MOL1        0.0270
    289 9H93       97.7430  139.4460  127.6880 H       1  MOL1        0.0270
    290 0H94       95.7650  138.8380  127.8700 H       1  MOL1        0.0266
    291 1H94       95.4470  138.6070  129.4710 H       1  MOL1        0.0266
    292 2H94       97.4620  137.0090  127.7990 H       1  MOL1        0.0276
    293 3H94       95.7090  136.9590  127.4950 H       1  MOL1        0.0276
    294 4H94       94.2640  133.0210  130.3710 H       1  MOL1        0.0385
    295 5H94       95.9350  133.2200  130.3440 H       1  MOL1        0.0385
    296 6H94       94.3050  135.6300  128.9960 H       1  MOL1        0.0284
    297 7H94       94.4420  134.0170  128.4850 H       1  MOL1        0.0284
    298 8H94       91.2030  144.2100  141.5710 H       1  MOL1        0.0276
    299 9H94       90.0810  143.0380  141.0410 H       1  MOL1        0.0276
    300 0H95       90.8230  147.0890  140.6400 H       1  MOL1        0.0240
    301 1H95       90.4820  146.2040  142.0140 H       1  MOL1        0.0240
    302 2H95       89.1740  146.8220  141.0950 H       1  MOL1        0.0240
    303 3H95       90.8080  146.1460  135.8870 H       1  MOL1        0.0735
    304 4H95       91.9870  144.9520  136.3030 H       1  MOL1        0.0735
    305 5H95       90.9600  144.4870  134.3720 H       1  MOL1        0.0765
    306 6H95       90.8020  142.2800  134.6770 H       1  MOL1        0.0266
    307 7H95       90.8830  142.2880  136.3660 H       1  MOL1        0.0266
    308 8H95       92.1600  143.1510  135.5800 H       1  MOL1        0.0266
    309 9H95       86.6760  137.3790  130.2300 H       1  MOL1        0.0421
    310 0H96       88.9590  136.4170  131.7690 H       1  MOL1        0.0284
    311 1H96       87.8510  135.7970  130.6210 H       1  MOL1        0.0284
    312 2H96       88.2660  135.1810  133.5560 H       1  MOL1        0.0385
    313 3H96       88.4740  134.4150  132.0860 H       1  MOL1        0.0385
    314 4H96       87.5120  139.6850  130.6230 H       1  MOL1        0.0276
    315 5H96       86.0210  139.1600  130.1790 H       1  MOL1        0.0276
    316 6H96       84.9690  140.5160  131.7170 H       1  MOL1        0.0266
    317 7H96       86.0660  141.1230  130.5080 H       1  MOL1        0.0266
    318 8H96       85.3220  141.8690  133.2230 H       1  MOL1        0.0270
    319 9H96       85.4910  142.6990  131.7350 H       1  MOL1        0.0270
    320 0H97       86.1950  143.7520  133.6930 H       1  MOL1        0.0377
    321 1H97       86.9810  143.7860  132.1910 H       1  MOL1        0.0377
    322 2H97       95.8200  134.9840  127.3620 H       1  MOL1        0.0421
    323 3H97       82.2380  139.5140  144.2570 H       1  MOL1        0.0540
    324 4H97       83.5250  138.6560  143.2850 H       1  MOL1        0.0540
    325 5H97       83.0520  141.3060  145.8390 H       1  MOL1        0.0280
    326 6H97       82.5050  141.9900  144.3740 H       1  MOL1        0.0280
    327 7H97       84.0680  142.5480  144.9660 H       1  MOL1        0.0280
    328 8H97       87.8090  140.1000  141.7840 H       1  MOL1        0.0735
    329 9H97       87.3330  138.4110  141.9920 H       1  MOL1        0.0735
    330 0H98       86.9110  140.0230  139.4990 H       1  MOL1        0.0765
    331 1H98       88.9740  139.2910  140.4180 H       1  MOL1        0.0266
    332 2H98       88.7540  138.6020  138.8630 H       1  MOL1        0.0266
    333 3H98       88.5410  137.6010  140.2990 H       1  MOL1        0.0266
    334 4H98       84.6050  133.0150  134.5690 H       1  MOL1        0.0421
    335 5H98       84.2600  130.2720  134.2690 H       1  MOL1        0.0284
    336 6H98       83.7380  131.6990  133.3710 H       1  MOL1        0.0284
    337 7H98       82.9050  132.1960  136.0160 H       1  MOL1        0.0377
    338 8H98       82.7420  130.4220  135.7800 H       1  MOL1        0.0377
    339 9H98       84.2610  131.3330  136.9980 H       1  MOL1        0.0276
    340 0H99       85.8840  131.7040  137.1580 H       1  MOL1        0.0276
    341 1H99       85.7660  133.3930  138.1510 H       1  MOL1        0.0266
    342 2H99       84.4320  132.5580  138.8000 H       1  MOL1        0.0266
    343 3H99       85.1360  134.5040  139.5470 H       1  MOL1        0.0270
    344 4H99       83.6390  134.1810  139.4590 H       1  MOL1        0.0270
    345 5H99       83.7130  136.1960  140.2010 H       1  MOL1        0.0377
    346 6H99       83.0450  136.5420  138.6920 H       1  MOL1        0.0377
    347 7H99       79.4380  131.9120  136.2800 H       1  MOL1        0.0340
    348 8H99       79.7730  133.4950  135.7460 H       1  MOL1        0.0340
    349 9H99       80.8990  132.7690  136.8330 H       1  MOL1        0.0340
    350  H10       97.6220  147.5280  127.7330 H       1  MOL1        0.0540
    351  H10       96.5430  146.4800  128.7780 H       1  MOL1        0.0540
    352  H10      100.6040  146.8640  129.2420 H       1  MOL1        0.0280
    353  H10      100.0600  148.0740  130.4050 H       1  MOL1        0.0280
    354  H10       99.7150  148.3310  128.7080 H       1  MOL1        0.0280
    355  H10       96.6260  146.8440  132.4450 H       1  MOL1        0.0735
    356  H10       95.3450  145.8270  131.9370 H       1  MOL1        0.0735
    357  H10       97.8530  145.3550  133.5000 H       1  MOL1        0.0765
    358  H10       96.1970  144.6430  135.3680 H       1  MOL1        0.0266
    359  H10       94.9440  145.2680  134.3050 H       1  MOL1        0.0266
    360  H10       96.2830  146.2960  134.8090 H       1  MOL1        0.0266
    361  H10       95.3290  137.6720  132.7550 H       1  MOL1        0.0421
    362  H10       93.7200  138.9400  132.2570 H       1  MOL1        0.0284
    363  H10       94.3980  137.9290  131.0410 H       1  MOL1        0.0284
    364  H10       92.6830  137.6300  129.9100 H       1  MOL1        0.0385
    365  H10       92.4620  139.0580  130.3530 H       1  MOL1        0.0385
    366  H10       95.4160  137.5010  134.8230 H       1  MOL1        0.0276
    367  H10       93.8380  137.8290  135.1340 H       1  MOL1        0.0276
    368  H10       94.5180  139.8180  135.2420 H       1  MOL1        0.0266
    369  H10       94.5690  139.9490  133.5200 H       1  MOL1        0.0266
    370  H10       97.2240  139.6920  134.7920 H       1  MOL1        0.0270
    371  H10       96.2040  140.8800  135.4090 H       1  MOL1        0.0270
    372  H10       97.6450  141.0410  132.7440 H       1  MOL1        0.0377
    373  H10       97.7840  141.8110  134.1290 H       1  MOL1        0.0377
    374  H10       85.0390  148.6650  155.7160 H       1  MOL1        0.0263
    375  H10       83.5450  149.5000  155.6150 H       1  MOL1        0.0263
    376  H10       85.5380  148.8800  153.4990 H       1  MOL1        0.0265
    377  H10       84.1810  149.9100  153.1330 H       1  MOL1        0.0265
    378  H10       82.6940  147.8930  153.2760 H       1  MOL1        0.0265
    379  H10       84.0760  146.8700  153.5800 H       1  MOL1        0.0265
    380  H10       85.0490  147.2540  151.5730 H       1  MOL1        0.0265
    381  H10       84.3930  148.8640  151.3880 H       1  MOL1        0.0265
    382  H10       82.2120  147.5320  150.5720 H       1  MOL1        0.0265
    383  H10       83.3630  146.2820  150.3070 H       1  MOL1        0.0265
    384  H10       84.4560  148.9360  149.3940 H       1  MOL1        0.0265
    385  H10       82.8510  148.7140  148.7760 H       1  MOL1        0.0265
    386  H10       83.4530  147.2040  147.2850 H       1  MOL1        0.0265
    387  H10       84.2310  146.2040  148.5060 H       1  MOL1        0.0265
    388  H10       86.3870  147.3140  148.1280 H       1  MOL1        0.0265
    389  H10       85.6820  148.3930  146.9510 H       1  MOL1        0.0265
    390  H10       85.2220  146.6150  145.4980 H       1  MOL1        0.0266
    391  H10       84.9600  145.4990  146.7860 H       1  MOL1        0.0266
    392  H10       87.1360  144.7690  146.8610 H       1  MOL1        0.0298
    393  H10       87.7390  145.9690  145.7050 H       1  MOL1        0.0298
    394  H10       85.8680  145.2500  144.2480 H       1  MOL1        0.0697
    395  H10       85.8390  143.7270  145.1400 H       1  MOL1        0.0697
    396  H10       84.9690  151.4970  154.5370 H       1  MOL1        0.0230
    397  H10       86.3880  150.5740  155.0230 H       1  MOL1        0.0230
    398  H10       85.3070  151.2270  156.2220 H       1  MOL1        0.0230
    399  H10       88.6390  142.0850  142.9390 H       1  MOL1        0.0411
    400  H10       91.0970  142.3830  144.4340 H       1  MOL1        0.0238
    401  H10       91.3250  142.6370  142.7310 H       1  MOL1        0.0238
    402  H10       90.5940  141.1950  143.2320 H       1  MOL1        0.0238
    403  H10       89.2800  145.0400  142.9940 H       1  MOL1        0.0273
    404  H10       88.1460  144.2030  142.0270 H       1  MOL1        0.0273
    405  H10       87.9660  144.8420  140.3470 H       1  MOL1        0.0240
    406  H10       88.5260  144.5620  138.7260 H       1  MOL1        0.0240
    407  H10       88.4360  146.1950  139.3360 H       1  MOL1        0.0240
    408  H10       99.8980  122.1760  115.3090 H       1  MOL1        0.2951
    409  H10      100.0920  123.7350  114.3800 H       1  MOL1        0.0377
    410  H10       98.4620  124.3280  114.7440 H       1  MOL1        0.0377
    411  H10       98.5530  124.0310  111.8550 H       1  MOL1        0.0270
    412  H10      100.1130  124.6790  112.3360 H       1  MOL1        0.0270
    413  H10       98.8430  126.2650  113.8680 H       1  MOL1        0.0266
    414  H10       97.4730  125.6940  113.2290 H       1  MOL1        0.0266
    415  H10       98.4750  127.0870  111.0280 H       1  MOL1        0.0276
    416  H10       99.8070  127.2110  112.1710 H       1  MOL1        0.0276
    417  H10       96.8510  130.1010  113.9140 H       1  MOL1        0.0385
    418  H10       96.6260  129.1610  115.3580 H       1  MOL1        0.0385
    419  H10       97.5070  127.5100  114.4260 H       1  MOL1        0.0284
    420  H10       99.0880  128.2460  114.6150 H       1  MOL1        0.0284
    421  H10       91.7640  128.4770  124.0320 H       1  MOL1        0.0276
    422  H10       90.3610  128.5620  122.9880 H       1  MOL1        0.0276
    423  H10       91.3980  127.9520  126.1670 H       1  MOL1        0.0240
    424  H10       89.8230  127.2410  126.4430 H       1  MOL1        0.0240
    425  H10       90.2000  128.8010  127.1720 H       1  MOL1        0.0240
    426  H10       88.9860  131.8340  123.8700 H       1  MOL1        0.0735
    427  H10       89.5880  130.8720  122.5740 H       1  MOL1        0.0735
    428  H10       89.1110  133.0210  121.8850 H       1  MOL1        0.0765
    429  H10       90.5370  134.7320  121.5240 H       1  MOL1        0.0266
    430  H10       91.8740  134.0390  122.4320 H       1  MOL1        0.0266
    431  H10       90.5300  134.7980  123.2720 H       1  MOL1        0.0266
    432  H10       96.4460  133.4390  121.6500 H       1  MOL1        0.0421
    433  H10       95.5890  136.3950  121.4190 H       1  MOL1        0.0284
    434  H10       97.2930  135.6480  121.7320 H       1  MOL1        0.0284
    435  H10       95.8860  137.7240  122.7400 H       1  MOL1        0.0385
    436  H10       97.3610  137.4920  122.1240 H       1  MOL1        0.0385
    437  H10       94.0960  134.2760  120.1800 H       1  MOL1        0.0276
    438  H10       93.9820  134.3890  121.8610 H       1  MOL1        0.0276
    439  H10       94.0930  131.7840  121.9950 H       1  MOL1        0.0266
    440  H10       95.1150  131.7730  120.7250 H       1  MOL1        0.0266
    441  H10       92.8180  130.6840  120.7210 H       1  MOL1        0.0270
    442  H10       93.7390  131.0170  119.3590 H       1  MOL1        0.0270
    443  H10       91.7090  131.4330  118.5330 H       1  MOL1        0.0377
    444  H10       92.2860  133.0550  118.8200 H       1  MOL1        0.0377
    445  H10       97.3030  128.7580  112.2380 H       1  MOL1        0.0421
    446  H10      102.6100  144.8680  128.5750 H       1  MOL1        0.0540
    447  H10      104.0380  145.4880  129.4380 H       1  MOL1        0.0540
    448  H10      106.1570  143.2810  129.4900 H       1  MOL1        0.0280
    449  H10      106.1040  144.1610  127.9280 H       1  MOL1        0.0280
    450  H11      106.0090  142.4290  127.9270 H       1  MOL1        0.0280
    451  H11      100.6020  142.3280  126.8720 H       1  MOL1        0.0735
    452  H11      102.0250  141.5100  126.2530 H       1  MOL1        0.0735
    453  H11      100.1920  140.7060  128.4160 H       1  MOL1        0.0765
    454  H11       98.9490  140.8760  126.7810 H       1  MOL1        0.0266
    455  H11       99.2760  139.1900  126.4500 H       1  MOL1        0.0266
    456  H11       99.9950  140.4200  125.5100 H       1  MOL1        0.0266
    457  H11       98.7690  135.2070  127.2700 H       1  MOL1        0.0421
    458  H11       99.7100  133.2850  125.3920 H       1  MOL1        0.0284
    459  H11       98.0820  132.9470  125.8560 H       1  MOL1        0.0284
    460  H11       99.9660  133.3020  128.0650 H       1  MOL1        0.0385
    461  H11      100.0150  131.8060  127.0260 H       1  MOL1        0.0385
    462  H11       99.8930  136.7160  125.6150 H       1  MOL1        0.0276
    463  H11      100.6890  135.3840  125.0520 H       1  MOL1        0.0276
    464  H11      101.3740  134.4120  126.8530 H       1  MOL1        0.0266
    465  H11      100.5030  135.1850  128.0160 H       1  MOL1        0.0266
    466  H11      103.1970  135.9900  126.8630 H       1  MOL1        0.0270
    467  H11      102.9810  135.2320  128.3520 H       1  MOL1        0.0270
    468  H11      104.1540  137.1870  128.4990 H       1  MOL1        0.0377
    469  H11      102.9090  137.1250  129.6850 H       1  MOL1        0.0377
    470  H11       95.7860  127.3640  110.4120 H       1  MOL1        0.0540
    471  H11       95.3520  128.2880  111.9860 H       1  MOL1        0.0540
    472  H11       96.4920  124.2320  112.2940 H       1  MOL1        0.0280
    473  H11       97.0030  125.2200  110.9390 H       1  MOL1        0.0280
    474  H11       95.3660  124.5640  110.9620 H       1  MOL1        0.0280
    475  H11       93.2630  128.1030  115.2330 H       1  MOL1        0.0735
    476  H11       93.7920  126.5560  115.3800 H       1  MOL1        0.0735
    477  H11       95.1370  129.0120  116.4220 H       1  MOL1        0.0765
    478  H11       93.3800  129.0970  117.5690 H       1  MOL1        0.0266
    479  H11       94.2510  128.0960  118.6290 H       1  MOL1        0.0266
    480  H11       92.9840  127.3990  117.5300 H       1  MOL1        0.0266
    481  H11      101.9860  131.5010  116.3130 H       1  MOL1        0.0421
    482  H11      101.0900  133.4440  116.5300 H       1  MOL1        0.0284
    483  H11       99.5500  132.9730  115.9340 H       1  MOL1        0.0284
    484  H11       99.8280  134.2350  117.9360 H       1  MOL1        0.0385
    485  H11      100.1170  132.7160  118.8610 H       1  MOL1        0.0385
    486  H11       99.6900  130.3670  117.7220 H       1  MOL1        0.0276
    487  H11      101.1880  130.4030  118.4950 H       1  MOL1        0.0276
    488  H11      101.6850  128.3080  117.6260 H       1  MOL1        0.0266
    489  H11      101.0450  128.6780  116.0470 H       1  MOL1        0.0266
    490  H11       99.4860  128.2490  118.5550 H       1  MOL1        0.0270
    491  H11      100.2910  126.8710  118.0140 H       1  MOL1        0.0270
    492  H11       98.3420  126.6730  118.6260 H       1  MOL1        0.0377
    493  H11       98.2020  126.0440  117.0890 H       1  MOL1        0.0377
    494  H11       82.7000  115.2960  119.2330 H       1  MOL1        0.0263
    495  H11       81.8740  116.7760  119.7100 H       1  MOL1        0.0263
    496  H11       83.9880  115.4590  121.4370 H       1  MOL1        0.0265
    497  H11       83.1120  116.9610  121.7530 H       1  MOL1        0.0265
    498  H11       84.2450  116.9150  119.0510 H       1  MOL1        0.0265
    499  H11       85.5160  116.6930  120.0900 H       1  MOL1        0.0265
    500  H11       84.6460  118.6600  121.4840 H       1  MOL1        0.0265
    501  H11       83.3420  118.8560  120.4360 H       1  MOL1        0.0265
    502  H11       84.6130  120.2370  118.9360 H       1  MOL1        0.0265
    503  H11       85.8980  119.1970  118.9000 H       1  MOL1        0.0265
    504  H11       86.0720  119.9350  121.4300 H       1  MOL1        0.0265
    505  H11       84.7470  120.9960  121.0910 H       1  MOL1        0.0265
    506  H11       87.6750  121.1190  120.8760 H       1  MOL1        0.0265
    507  H11       86.5370  122.0370  121.7580 H       1  MOL1        0.0265
    508  H11       87.3770  123.5970  120.5120 H       1  MOL1        0.0265
    509  H11       86.5300  123.1450  119.1230 H       1  MOL1        0.0265
    510  H11       88.9120  123.5260  118.9620 H       1  MOL1        0.0266
    511  H11       88.6840  121.7670  118.7810 H       1  MOL1        0.0266
    512  H11       90.6140  122.7430  120.3830 H       1  MOL1        0.0298
    513  H11       89.7820  121.2440  120.6110 H       1  MOL1        0.0298
    514  H11       90.0030  122.4110  122.6380 H       1  MOL1        0.0697
    515  H11       88.3180  122.4300  122.4310 H       1  MOL1        0.0697
    516  H11       80.6200  114.7850  120.0430 H       1  MOL1        0.0230
    517  H11       80.7240  115.9280  121.4060 H       1  MOL1        0.0230
    518  H11       81.6780  114.4090  121.4500 H       1  MOL1        0.0230
    519  H11       88.5280  126.7030  123.5110 H       1  MOL1        0.0411
    520  H11       90.8530  127.0270  121.6900 H       1  MOL1        0.0238
    521  H11       89.2380  127.5850  121.4890 H       1  MOL1        0.0238
    522  H11       89.5810  125.9970  120.9700 H       1  MOL1        0.0238
    523  H11       91.5400  126.2610  123.5820 H       1  MOL1        0.0273
    524  H11       90.5590  126.2890  125.0240 H       1  MOL1        0.0273
    525  H11       88.0020  128.2830  124.4850 H       1  MOL1        0.0240
    526  H11       88.1990  130.0320  124.1980 H       1  MOL1        0.0240
    527  H11       87.9500  129.4260  125.7930 H       1  MOL1        0.0240
    528  H11      117.2460  137.2520  107.2250 H       1  MOL1        0.2951
    529  H11      115.6710  138.0930  105.9000 H       1  MOL1        0.0377
    530  H11      116.5780  136.8260  105.0880 H       1  MOL1        0.0377
    531  H11      117.0290  138.1790  103.1560 H       1  MOL1        0.0270
    532  H11      116.2100  139.5260  103.6320 H       1  MOL1        0.0270
    533  H11      114.1680  138.4400  103.5460 H       1  MOL1        0.0266
    534  H11      115.2070  137.2070  102.6120 H       1  MOL1        0.0266
    535  H11      114.1270  137.5220  101.0050 H       1  MOL1        0.0276
    536  H11      113.2050  138.8960  101.5880 H       1  MOL1        0.0276
    537  H11      109.4020  135.4380  101.5100 H       1  MOL1        0.0385
    538  H11      110.7880  134.3450  101.3450 H       1  MOL1        0.0385
    539  H11      111.9520  135.6390  103.0590 H       1  MOL1        0.0284
    540  H11      110.7590  136.8860  103.1070 H       1  MOL1        0.0284
    541  H11      106.6750  138.6100  116.0570 H       1  MOL1        0.0276
    542  H11      106.0350  140.1120  115.5880 H       1  MOL1        0.0276
    543  H11      109.6940  141.0390  116.4770 H       1  MOL1        0.0240
    544  H11      108.3180  142.0490  116.1330 H       1  MOL1        0.0240
    545  H11      109.4570  141.5020  114.8290 H       1  MOL1        0.0240
    546  H11      110.5370  137.5960  113.8180 H       1  MOL1        0.0735
    547  H11      109.4610  136.1980  113.8710 H       1  MOL1        0.0735
    548  H11      108.9650  138.3190  111.8620 H       1  MOL1        0.0765
    549  H11      110.2680  136.2450  110.6080 H       1  MOL1        0.0266
    550  H12      110.7120  135.8390  112.2620 H       1  MOL1        0.0266
    551  H12      111.2510  137.3630  111.5710 H       1  MOL1        0.0266
    552  H12      106.3300  132.0440  111.7870 H       1  MOL1        0.0421
    553  H12      108.0080  129.8970  112.4320 H       1  MOL1        0.0284
    554  H12      108.4620  130.1550  110.7490 H       1  MOL1        0.0284
    555  H12      105.5530  130.3670  111.2440 H       1  MOL1        0.0385
    556  H12      106.2040  128.8740  111.9240 H       1  MOL1        0.0385
    557  H12      108.9270  131.6830  113.0940 H       1  MOL1        0.0276
    558  H12      107.3160  131.8980  113.7540 H       1  MOL1        0.0276
    559  H12      109.0180  134.0920  112.3840 H       1  MOL1        0.0266
    560  H12      108.8920  133.8300  114.0650 H       1  MOL1        0.0266
    561  H12      107.1200  135.4620  113.7560 H       1  MOL1        0.0270
    562  H12      106.2400  133.9520  113.6240 H       1  MOL1        0.0270
    563  H12      105.7410  135.7200  111.8790 H       1  MOL1        0.0377
    564  H12      106.1540  134.1720  111.1450 H       1  MOL1        0.0377
    565  H12      112.8720  135.9260  101.2650 H       1  MOL1        0.0412
    566  H12      111.2450  135.6500   98.1610 H       1  MOL1        0.0341
    567  H12      110.3000  135.2230   99.6010 H       1  MOL1        0.0341
    568  H12      112.0470  134.7900   99.5070 H       1  MOL1        0.0341
    569  H12      103.8140  131.3190  118.0310 H       1  MOL1        0.0540
    570  H12      103.2590  130.1090  119.3020 H       1  MOL1        0.0540
    571  H12      102.7170  131.2790  121.6510 H       1  MOL1        0.0280
    572  H12      101.1520  131.5730  120.8650 H       1  MOL1        0.0280
    573  H12      102.0510  132.9190  121.5940 H       1  MOL1        0.0280
    574  H12      102.3210  135.3670  117.6460 H       1  MOL1        0.0735
    575  H12      103.9740  135.7580  118.0130 H       1  MOL1        0.0735
    576  H12      102.5470  135.8290  115.8210 H       1  MOL1        0.0765
    577  H12      104.2290  136.4160  114.1400 H       1  MOL1        0.0266
    578  H12      105.3840  135.4950  114.9450 H       1  MOL1        0.0266
    579  H12      104.7300  137.0420  115.6630 H       1  MOL1        0.0266
    580  H12      103.6800  129.6460  109.1670 H       1  MOL1        0.0421
    581  H12      102.0730  127.5680  109.0820 H       1  MOL1        0.0284
    582  H12      101.8210  129.1380  108.4420 H       1  MOL1        0.0284
    583  H12      100.3560  127.9020  110.6160 H       1  MOL1        0.0385
    584  H12       99.9070  128.1070  108.9760 H       1  MOL1        0.0385
    585  H12      101.8970  130.4720  111.2100 H       1  MOL1        0.0276
    586  H12      103.3650  131.2200  110.7450 H       1  MOL1        0.0276
    587  H12      104.3200  129.3760  112.6060 H       1  MOL1        0.0266
    588  H12      102.7110  129.8330  113.1500 H       1  MOL1        0.0266
    589  H12      104.4970  132.0380  112.1660 H       1  MOL1        0.0270
    590  H12      104.8630  131.3750  113.7470 H       1  MOL1        0.0270
    591  H12      102.4130  131.9200  114.4030 H       1  MOL1        0.0377
    592  H12      102.2390  132.4830  112.7330 H       1  MOL1        0.0377
    593  H12      116.8570  141.6460  106.0800 H       1  MOL1        0.0540
    594  H12      116.4540  140.0610  106.8840 H       1  MOL1        0.0540
    595  H12      117.4710  143.2630  109.3150 H       1  MOL1        0.0280
    596  H12      116.0060  143.7500  108.4280 H       1  MOL1        0.0280
    597  H12      117.4960  143.5420  107.5670 H       1  MOL1        0.0280
    598  H12      114.5460  139.5710  110.5260 H       1  MOL1        0.0735
    599  H12      113.6830  139.4160  108.9690 H       1  MOL1        0.0735
    600  H12      115.6950  137.5120  109.5170 H       1  MOL1        0.0765
    601  H12      114.5060  135.9300  111.0410 H       1  MOL1        0.0266
    602  H12      113.1470  136.9950  111.2540 H       1  MOL1        0.0266
    603  H12      114.6700  137.4880  111.9090 H       1  MOL1        0.0266
    604  H12      108.6190  133.9130  105.6390 H       1  MOL1        0.0421
    605  H12      108.0700  131.1850  106.6370 H       1  MOL1        0.0284
    606  H12      106.7790  132.0970  105.8760 H       1  MOL1        0.0284
    607  H12      107.5020  133.9370  107.6810 H       1  MOL1        0.0385
    608  H12      108.7490  132.8090  108.0970 H       1  MOL1        0.0385
    609  H12      110.8970  132.3060  105.6190 H       1  MOL1        0.0276
    610  H12      110.1800  132.0860  107.1370 H       1  MOL1        0.0276
    611  H12      109.7120  134.7440  107.0140 H       1  MOL1        0.0266
    612  H12      111.0660  134.6610  105.8920 H       1  MOL1        0.0266
    613  H12      112.0280  133.3940  108.0690 H       1  MOL1        0.0270
    614  H12      110.8690  134.5110  108.8390 H       1  MOL1        0.0270
    615  H12      112.7170  135.6970  106.7940 H       1  MOL1        0.0377
    616  H12      113.6320  134.8140  107.9740 H       1  MOL1        0.0377
    617  H12      106.8080  151.1340  125.0300 H       1  MOL1        0.0263
    618  H12      107.3060  149.5560  125.6040 H       1  MOL1        0.0263
    619  H12      104.5820  150.3870  124.8950 H       1  MOL1        0.0265
    620  H12      104.7660  149.2330  126.2260 H       1  MOL1        0.0265
    621  H12      106.1410  147.7490  124.8630 H       1  MOL1        0.0265
    622  H12      106.4460  148.9980  123.6920 H       1  MOL1        0.0265
    623  H12      104.2940  149.1290  122.9310 H       1  MOL1        0.0265
    624  H12      103.7470  148.0360  124.2680 H       1  MOL1        0.0265
    625  H12      104.8960  146.1800  123.2800 H       1  MOL1        0.0265
    626  H12      105.2910  147.1140  121.8790 H       1  MOL1        0.0265
    627  H12      102.8610  147.5790  121.4220 H       1  MOL1        0.0265
    628  H12      102.4370  147.1990  123.0410 H       1  MOL1        0.0265
    629  H12      102.0220  145.6540  120.9310 H       1  MOL1        0.0265
    630  H12      101.8720  145.2040  122.6050 H       1  MOL1        0.0265
    631  H12      104.5980  144.4950  121.9850 H       1  MOL1        0.0265
    632  H12      103.6550  144.1570  120.5570 H       1  MOL1        0.0265
    633  H12      101.9780  143.0850  122.2020 H       1  MOL1        0.0266
    634  H12      103.6170  142.7350  122.9560 H       1  MOL1        0.0266
    635  H12      104.1540  142.3240  120.5060 H       1  MOL1        0.0298
    636  H12      102.4140  142.0400  120.2680 H       1  MOL1        0.0298
    637  H12      102.7920  139.9200  120.9630 H       1  MOL1        0.0697
    638  H12      103.7440  140.3340  122.3970 H       1  MOL1        0.0697
    639  H12      106.7250  151.9900  127.1300 H       1  MOL1        0.0230
    640  H12      108.1320  150.9990  126.9730 H       1  MOL1        0.0230
    641  H12      106.7710  150.4370  127.9780 H       1  MOL1        0.0230
    642  H12      107.1280  139.4490  119.5070 H       1  MOL1        0.0411
    643  H12      107.8320  141.8570  119.6000 H       1  MOL1        0.0238
    644  H12      107.0750  141.2250  121.0170 H       1  MOL1        0.0238
    645  H12      106.1280  142.2160  120.0840 H       1  MOL1        0.0238
    646  H12      106.1310  141.2860  117.2520 H       1  MOL1        0.0273
    647  H12      105.3200  139.7300  117.4740 H       1  MOL1        0.0273
    648  H12      107.0880  139.2940  113.7860 H       1  MOL1        0.0240
    649  H12      108.4070  140.3720  113.3220 H       1  MOL1        0.0240
    650  H13      106.9400  141.0570  114.0800 H       1  MOL1        0.0240
    651  O65      103.7340   98.6020  122.2720 O.2     2  MOL2       -0.2510
    652  O65      103.4740   98.2810  120.1340 O.3     2  MOL2       -0.4806
    653  C65      104.2640   98.5950  121.1930 C.2     2  MOL2        0.3047
    654  C65      105.7110   98.9280  120.6050 C.3     2  MOL2        0.0448
    655  C65      107.2320   98.7250  121.0530 C.3     2  MOL2       -0.0430
    656  C65      108.5490   98.1780  120.2350 C.3     2  MOL2       -0.0515
    657  C65      109.8410   97.8590  121.2130 C.3     2  MOL2       -0.0403
    658  S65      110.8430   92.5090  120.4580 S.3     2  MOL2       -0.0928
    659  C65      111.7940   94.2830  120.8790 C.3     2  MOL2        0.0050
    660  C66      111.7670   95.9190  120.5980 C.3     2  MOL2       -0.0305
    661  C66      101.0490   92.3950  110.9810 C.2     2  MOL2        0.3129
    662  C66      101.0090   91.2290  109.8800 C.3     2  MOL2        0.0622
    663  C66      101.2170   89.7490  110.2470 C.3     2  MOL2       -0.0370
    664  C66       99.6410   91.0850  109.2740 C.3     2  MOL2       -0.0497
    665  O66      100.3690   92.4800  111.9640 O.2     2  MOL2       -0.2502
    666  O66      102.0060   93.3310  110.6320 O.3     2  MOL2       -0.4605
    667  C66      102.4320   94.6000  111.2800 C.3     2  MOL2        0.1290
    668  C66      103.9340   95.0140  111.4570 C.3     2  MOL2        0.1341
    669  C66      104.3960   94.1890  112.5900 C.3     2  MOL2       -0.0244
    670  C67      112.1210   95.1840  112.2640 C.3     2  MOL2        0.0162
    671  C67      112.6980   94.0280  113.2700 C.3     2  MOL2       -0.0305
    672  C67      113.2350   92.5270  113.5300 C.3     2  MOL2        0.0050
    673  S67      114.5750   91.5980  112.5870 S.3     2  MOL2       -0.0928
    674  C67      111.2710   95.8810  110.9780 C.3     2  MOL2       -0.0403
    675  C67      110.2410   96.1650  109.7380 C.3     2  MOL2       -0.0515
    676  C67      108.7890   96.0620  109.0230 C.3     2  MOL2       -0.0429
    677  C67      107.1850   96.0900  109.1980 C.3     2  MOL2        0.0450
    678  C67      105.8700   96.2510  110.1040 C.2     2  MOL2        0.3074
    679  O67      105.1920   95.1710  110.6150 O.3     2  MOL2       -0.4582
    680  O68      105.4450   97.3520  110.2310 O.2     2  MOL2       -0.2508
    681  C68      111.2230   96.8820  121.6440 C.3     2  MOL2        0.0162
    682  C68      104.9120   85.7490  107.1940 C.2     2  MOL2        0.3344
    683  C68      105.3450   85.0800  105.8870 C.2     2  MOL2        0.0264
    684  C68      106.5990   84.6540  105.6710 C.2     2  MOL2       -0.0890
    685  C68      104.4440   84.9050  104.6940 C.3     2  MOL2       -0.0335
    686  O68      103.7590   86.0710  107.3270 O.2     2  MOL2       -0.2453
    687  O68      105.8270   85.9850  108.1890 O.3     2  MOL2       -0.4577
    688  C68      106.0300   86.8330  109.4010 C.3     2  MOL2        0.1293
    689  C68      107.0260   88.0640  109.6910 C.3     2  MOL2        0.1341
    690  C69      106.8590   88.0710  111.2390 C.3     2  MOL2       -0.0244
    691  C69      115.4840   88.7990  111.9570 C.3     2  MOL2        0.0162
    692  C69      116.9380   88.8770  111.4970 C.3     2  MOL2       -0.0313
    693  C69      116.9890   88.0440  110.2420 C.3     2  MOL2       -0.0056
    694  S69      117.5820   88.8790  108.7890 S.3     2  MOL2       -0.1641
    695  C69      114.7370   87.3310  111.6260 C.3     2  MOL2       -0.0403
    696  C69      113.4390   86.7900  110.6790 C.3     2  MOL2       -0.0515
    697  C69      112.1480   86.7390  109.5760 C.3     2  MOL2       -0.0429
    698  C69      110.8980   87.2180  108.4950 C.3     2  MOL2        0.0450
    699  C69      109.6330   88.3160  108.1630 C.2     2  MOL2        0.3074
    700  O70      108.3220   88.4240  108.8440 O.3     2  MOL2       -0.4582
    701  O70      109.7610   89.0750  107.2620 O.2     2  MOL2       -0.2508
    702  C70      116.9420   87.8450  107.4120 C.3     2  MOL2       -0.0181
    703  S70      115.1740   89.8030  113.4920 S.3     2  MOL2       -0.0897
    704  C70      101.0090  100.4110  118.3900 C.2     2  MOL2        0.3344
    705  C70      100.8380  101.8500  118.4460 C.2     2  MOL2        0.0264
    706  C70      101.6330  102.6180  117.6750 C.2     2  MOL2       -0.0890
    707  C70       99.7180  102.3670  119.2760 C.3     2  MOL2       -0.0335
    708  O70      100.4090   99.6330  119.0960 O.2     2  MOL2       -0.2453
    709  O70      101.8460   99.9200  117.4580 O.3     2  MOL2       -0.4577
    710  C71      101.3310   98.9440  116.5840 C.3     2  MOL2        0.1293
    711  C71      101.2270   97.5730  117.1500 C.3     2  MOL2        0.1341
    712  C71      100.7980   96.6070  116.0540 C.3     2  MOL2       -0.0244
    713  S71      109.1290   92.2310  119.2420 S.3     2  MOL2       -0.0897
    714  C71      108.2340   93.7230  118.3690 C.3     2  MOL2        0.0162
    715  C71      108.6570   95.0980  117.6020 C.3     2  MOL2       -0.0305
    716  C71      109.6180   95.9190  116.5810 C.3     2  MOL2        0.0050
    717  S71      110.7610   96.2600  115.1550 S.3     2  MOL2       -0.0928
    718  C71      106.9480   93.0020  117.9850 C.3     2  MOL2       -0.0403
    719  C71      105.6540   93.7990  117.7230 C.3     2  MOL2       -0.0515
    720  C72      104.3790   94.1660  118.5350 C.3     2  MOL2       -0.0429
    721  C72      103.7400   95.5620  118.7890 C.3     2  MOL2        0.0450
    722  C72      103.3780   96.5580  117.7030 C.2     2  MOL2        0.3074
    723  O72      102.2100   97.1090  118.0860 O.3     2  MOL2       -0.4582
    724  O72      103.9280   96.7760  116.6740 O.2     2  MOL2       -0.2508
    725  S72      111.9860   96.5000  113.6010 S.3     2  MOL2       -0.0897
    726  C72       93.2530   79.9490  100.5220 C.3     2  MOL2       -0.0559
    727  C72       94.2640   80.9970  100.9170 C.3     2  MOL2       -0.0533
    728  C72       95.7890   80.8520  100.9000 C.3     2  MOL2       -0.0531
    729  C72       96.3100   82.1750  101.4780 C.3     2  MOL2       -0.0531
    730  C73       97.6050   82.9080  101.1270 C.3     2  MOL2       -0.0531
    731  C73       97.4130   84.4290  101.3900 C.3     2  MOL2       -0.0531
    732  C73       98.4020   84.9430  102.4240 C.3     2  MOL2       -0.0531
    733  C73       97.9420   85.7070  103.6630 C.3     2  MOL2       -0.0530
    734  C73       99.2350   86.0070  104.4010 C.3     2  MOL2       -0.0500
    735  C73       99.4740   86.0090  105.8870 C.3     2  MOL2       -0.0185
    736  C73      100.8380   86.5700  106.0910 C.3     2  MOL2        0.0925
    737  C73       91.8580   80.5830  100.6460 C.3     2  MOL2       -0.0653
    738  C73      101.5500   87.2650  109.5540 C.3     2  MOL2        0.0537
    739  C73      101.2010   86.3430  108.4170 C.2     2  MOL2        0.3099
    740  O74      100.9300   87.1500  107.3740 O.3     2  MOL2       -0.4644
    741  O74      101.2080   85.1440  108.2830 O.2     2  MOL2       -0.2505
    742  C74      101.3390   86.9470  111.0450 C.3     2  MOL2       -0.0523
    743  C74      101.1010   88.7020  109.1310 C.3     2  MOL2       -0.0394
    744  C74      101.8750   91.6060  108.7250 C.3     2  MOL2       -0.0497
    745  O74      127.4690  103.3270  131.0520 O.2     2  MOL2       -0.2510
    746  O74      126.2820  101.9900  132.4310 O.3     2  MOL2       -0.4806
    747  C74      126.4740  103.1000  131.6680 C.2     2  MOL2        0.3047
    748  C74      125.1960  103.9000  131.6410 C.3     2  MOL2        0.0448
    749  C74      125.2560  105.4400  131.5480 C.3     2  MOL2       -0.0430
    750  C75      124.3910  105.8350  130.3730 C.3     2  MOL2       -0.0515
    751  C75      123.7480  107.2030  130.2200 C.3     2  MOL2       -0.0403
    752  S75      119.6250  105.6040  127.7740 S.3     2  MOL2       -0.0928
    753  C75      121.3250  106.0370  127.5200 C.3     2  MOL2        0.0050
    754  C75      122.1280  105.9830  128.7730 C.3     2  MOL2       -0.0305
    755  C75      118.8820   96.8170  119.4650 C.2     2  MOL2        0.3129
    756  C75      120.3190   96.2660  119.4270 C.3     2  MOL2        0.0622
    757  C75      121.0560   96.8710  120.6020 C.3     2  MOL2       -0.0370
    758  C75      120.1450   94.8180  119.8800 C.3     2  MOL2       -0.0497
    759  O75      117.9730   96.0440  119.5670 O.2     2  MOL2       -0.2502
    760  O76      118.7160   98.2050  119.5230 O.3     2  MOL2       -0.4605
    761  C76      119.1750   99.1020  118.4960 C.3     2  MOL2        0.1290
    762  C76      118.6590  100.5410  118.3730 C.3     2  MOL2        0.1341
    763  C76      117.2580  101.1380  118.3490 C.3     2  MOL2       -0.0244
    764  C76      115.4500  102.6820  123.1170 C.3     2  MOL2        0.0162
    765  C76      113.8480  102.7670  122.5930 C.3     2  MOL2       -0.0305
    766  C76      112.2270  102.6310  122.2650 C.3     2  MOL2        0.0050
    767  S76      110.7410  101.5700  122.5640 S.3     2  MOL2       -0.0928
    768  C76      116.4510  102.4250  121.9980 C.3     2  MOL2       -0.0403
    769  C76      117.7750  101.6760  122.4330 C.3     2  MOL2       -0.0515
    770  C77      119.2350  102.0130  121.9820 C.3     2  MOL2       -0.0429
    771  C77      119.6950  102.9190  120.8220 C.3     2  MOL2        0.0450
    772  C77      119.5890  102.4660  119.4510 C.2     2  MOL2        0.3074
    773  O77      119.1580  101.2030  119.5310 O.3     2  MOL2       -0.4582
    774  O77      119.8160  103.0810  118.4350 O.2     2  MOL2       -0.2508
    775  S77      121.3260  108.4320  129.6670 S.3     2  MOL2       -0.0897
    776  C77      122.6900  107.3370  129.1260 C.3     2  MOL2        0.0162
    777  C77      102.5650  101.6690  125.0700 C.2     2  MOL2        0.3344
    778  C77      101.1310  101.6570  125.1510 C.2     2  MOL2        0.0264
    779  C77      100.4040  101.7610  124.0290 C.2     2  MOL2       -0.0890
    780  C78      100.6180  101.5800  126.5310 C.3     2  MOL2       -0.0335
    781  O78      103.2650  101.9810  126.0080 O.2     2  MOL2       -0.2453
    782  O78      103.0890  101.2850  123.8930 O.3     2  MOL2       -0.4577
    783  C78      104.4400  101.5920  123.6930 C.3     2  MOL2        0.1293
    784  C78      105.4240  100.5020  123.6420 C.3     2  MOL2        0.1341
    785  C78      106.6700  101.2320  122.9560 C.3     2  MOL2       -0.0244
    786  C78      111.0960   98.8740  124.4670 C.3     2  MOL2        0.0162
    787  C78      112.2440   98.1800  125.2490 C.3     2  MOL2       -0.0305
    788  C78      112.0540   96.7970  125.7950 C.3     2  MOL2        0.0050
    789  S78      112.7400   95.6360  124.6570 S.3     2  MOL2       -0.0928
    790  C79      110.1160   99.5700  125.3710 C.3     2  MOL2       -0.0403
    791  C79      109.3180   98.4370  126.1500 C.3     2  MOL2       -0.0515
    792  C79      107.9320   98.3510  127.0190 C.3     2  MOL2       -0.0429
    793  C79      106.2910   98.2820  126.7650 C.3     2  MOL2        0.0450
    794  C79      105.2260   99.2370  126.0130 C.2     2  MOL2        0.3074
    795  O79      105.4750   99.4030  124.6670 O.3     2  MOL2       -0.4582
    796  O79      104.3690   99.7860  126.6420 O.2     2  MOL2       -0.2508
    797  S79      111.2610   96.0250  123.3020 S.3     2  MOL2       -0.0897
    798  S79      111.3300   99.6320  122.7710 S.3     2  MOL2       -0.0897
    799  C79      124.9950  105.3320  127.2690 C.2     2  MOL2        0.3344
    800  C80      125.7570  106.4410  127.8610 C.2     2  MOL2        0.0264
    801  C80      125.3430  107.6070  127.4170 C.2     2  MOL2       -0.0890
    802  C80      126.7930  106.3710  128.9530 C.3     2  MOL2       -0.0335
    803  O80      125.0940  104.2160  127.7050 O.2     2  MOL2       -0.2453
    804  O80      124.1510  105.5180  126.1910 O.3     2  MOL2       -0.4577
    805  C80      124.0180  104.3080  125.4560 C.3     2  MOL2        0.1293
    806  C80      122.8140  103.5080  125.6820 C.3     2  MOL2        0.1341
    807  C80      122.6830  102.5110  124.5110 C.3     2  MOL2       -0.0244
    808  S80      119.0120  106.6390  129.4350 S.3     2  MOL2       -0.0897
    809  C80      117.5190  105.6220  129.5730 C.3     2  MOL2        0.0162
    810  C81      116.6600  106.0780  128.3590 C.3     2  MOL2       -0.0305
    811  C81      116.0290  105.1340  127.3500 C.3     2  MOL2        0.0050
    812  S81      117.1100  104.9120  125.8680 S.3     2  MOL2       -0.0928
    813  C81      117.9570  104.1600  129.6920 C.3     2  MOL2       -0.0403
    814  C81      119.2390  103.7900  130.4870 C.3     2  MOL2       -0.0515
    815  C81      120.2450  102.7470  129.8600 C.3     2  MOL2       -0.0429
    816  C81      121.4480  102.3440  128.9470 C.3     2  MOL2        0.0450
    817  C81      121.6270  102.5140  127.4600 C.2     2  MOL2        0.3074
    818  O81      122.7210  103.2140  127.1010 O.3     2  MOL2       -0.4582
    819  O81      120.9960  101.9130  126.6470 O.2     2  MOL2       -0.2508
    820  S82      116.6890  103.8000  124.1410 S.3     2  MOL2       -0.0897
    821  C82      135.9840   93.4710  119.2570 C.3     2  MOL2       -0.0559
    822  C82      134.7210   93.0240  119.9400 C.3     2  MOL2       -0.0533
    823  C82      134.0940   94.2350  120.6190 C.3     2  MOL2       -0.0531
    824  C82      132.8640   94.6710  119.8240 C.3     2  MOL2       -0.0531
    825  C82      132.0870   95.9560  120.2140 C.3     2  MOL2       -0.0531
    826  C82      130.6560   95.5460  120.0380 C.3     2  MOL2       -0.0531
    827  C82      129.3240   96.0760  120.5070 C.3     2  MOL2       -0.0531
    828  C82      128.6860   97.4290  120.5830 C.3     2  MOL2       -0.0530
    829  C82      128.3430   97.8130  121.9960 C.3     2  MOL2       -0.0500
    830  C83      127.5550   96.7600  122.7810 C.3     2  MOL2       -0.0185
    831  C83      126.7110   95.7650  121.9970 C.3     2  MOL2        0.0925
    832  C83      136.6710   92.4180  118.4730 C.3     2  MOL2       -0.0653
    833  C83      123.4990   96.4710  120.4930 C.3     2  MOL2        0.0537
    834  C83      124.6430   95.5900  120.8640 C.2     2  MOL2        0.3099
    835  O83      125.6020   96.3900  121.3720 O.3     2  MOL2       -0.4644
    836  O83      124.7280   94.3860  120.7520 O.2     2  MOL2       -0.2505
    837  C83      123.6380   97.9540  120.8390 C.3     2  MOL2       -0.0523
    838  C83      122.2190   96.0520  121.1740 C.3     2  MOL2       -0.0394
    839  C83      120.9250   96.4060  118.0320 C.3     2  MOL2       -0.0497
    840  O84      108.6630  120.5470  143.4660 O.2     2  MOL2       -0.2510
    841  O84      109.2190  118.3700  143.4160 O.3     2  MOL2       -0.4806
    842  C84      109.4330  119.6960  143.1570 C.2     2  MOL2        0.3047
    843  C84      110.7430  119.8760  142.3950 C.3     2  MOL2        0.0448
    844  C84      111.1560  121.3710  142.1220 C.3     2  MOL2       -0.0430
    845  C84      112.4020  121.9660  141.2670 C.3     2  MOL2       -0.0516
    846  C84      113.6720  122.5210  140.4100 C.3     2  MOL2       -0.0411
    847  S84      117.0990  118.9140  138.4720 S.3     2  MOL2       -0.0928
    848  C84      117.1930  120.7200  138.7450 C.3     2  MOL2        0.0049
    849  C84      115.6960  120.9880  139.0380 C.3     2  MOL2       -0.0313
    850  C85      108.5600  111.1220  133.7810 C.2     2  MOL2        0.3129
    851  C85      108.1250  111.3780  132.3600 C.3     2  MOL2        0.0622
    852  C85      108.6230  110.4510  131.2160 C.3     2  MOL2       -0.0370
    853  C85      106.7030  111.7900  132.4630 C.3     2  MOL2       -0.0497
    854  O85      107.8420  111.0130  134.7450 O.2     2  MOL2       -0.2502
    855  O85      109.9200  111.2010  133.8260 O.3     2  MOL2       -0.4605
    856  C85      110.4200  111.6730  135.0640 C.3     2  MOL2        0.1290
    857  C85      111.2140  112.9160  135.0210 C.3     2  MOL2        0.1341
    858  C85      111.4230  113.2120  136.4890 C.3     2  MOL2       -0.0244
    859  C85      116.4150  110.5040  135.9060 C.3     2  MOL2        0.0162
    860  C86      117.5110  109.9720  136.8260 C.3     2  MOL2       -0.0305
    861  C86      118.7900  109.8090  136.0330 C.3     2  MOL2        0.0050
    862  S86      120.2460  110.7490  136.4260 S.3     2  MOL2       -0.0928
    863  C86      115.1990  109.6510  136.0400 C.3     2  MOL2       -0.0403
    864  C86      113.8700  110.2690  135.6380 C.3     2  MOL2       -0.0515
    865  C86      113.8520  110.5780  134.1390 C.3     2  MOL2       -0.0429
    866  C86      114.4020  111.9580  133.7720 C.3     2  MOL2        0.0450
    867  C86      113.6430  112.9480  134.5730 C.2     2  MOL2        0.3074
    868  O86      112.3910  112.5390  134.3310 O.3     2  MOL2       -0.4582
    869  O86      113.9980  113.8760  135.2570 O.2     2  MOL2       -0.2508
    870  S87      116.0020  123.7500  139.4870 S.3     2  MOL2       -0.1607
    871  C87      115.1530  122.1960  139.8640 C.3     2  MOL2        0.0058
    872  C87      117.6960  123.4070  139.8900 C.3     2  MOL2       -0.0178
    873  C87      113.7220  104.5890  129.9110 C.2     2  MOL2        0.3344
    874  C87      114.4950  103.4150  130.3290 C.2     2  MOL2        0.0264
    875  C87      115.3600  103.5620  131.3410 C.2     2  MOL2       -0.0890
    876  C87      114.3150  102.1180  129.5880 C.3     2  MOL2       -0.0335
    877  O87      112.9920  104.5020  128.9490 O.2     2  MOL2       -0.2453
    878  O87      113.8480  105.7980  130.5640 O.3     2  MOL2       -0.4577
    879  C87      113.1380  106.8750  129.9340 C.3     2  MOL2        0.1293
    880  C88      113.6970  108.2570  130.2100 C.3     2  MOL2        0.1341
    881  C88      112.9070  109.4190  130.8940 C.3     2  MOL2       -0.0244
    882  C88      121.1130  110.3240  133.6140 C.3     2  MOL2        0.0162
    883  C88      122.4560  110.5090  132.8500 C.3     2  MOL2       -0.0305
    884  C88      122.9380  110.0180  131.5000 C.3     2  MOL2        0.0050
    885  S88      122.0800  110.2820  129.9280 S.3     2  MOL2       -0.0928
    886  C88      119.8930  109.9090  132.7690 C.3     2  MOL2       -0.0403
    887  C88      119.0710  108.6680  133.0910 C.3     2  MOL2       -0.0515
    888  C88      117.5900  108.9510  132.8850 C.3     2  MOL2       -0.0429
    889  C88      117.2060  108.8140  131.4350 C.3     2  MOL2        0.0450
    890  C89      115.7550  109.1670  131.2890 C.2     2  MOL2        0.3074
    891  O89      115.0810  108.1510  130.6650 O.3     2  MOL2       -0.4582
    892  O89      115.3060  110.2150  131.6650 O.2     2  MOL2       -0.2508
    893  S89      121.3300  109.5260  135.2350 S.3     2  MOL2       -0.0897
    894  C89      106.7600  117.7370  140.2540 C.2     2  MOL2        0.3344
    895  C89      106.3910  119.1410  140.3730 C.2     2  MOL2        0.0264
    896  C89      107.3720  119.8870  140.8630 C.2     2  MOL2       -0.0890
    897  C89      105.0670  119.6930  139.9700 C.3     2  MOL2       -0.0335
    898  O89      105.9500  116.8740  139.9900 O.2     2  MOL2       -0.2453
    899  O89      108.0940  117.4190  140.4210 O.3     2  MOL2       -0.4577
    900  C90      108.6430  116.5220  139.4540 C.3     2  MOL2        0.1293
    901  C90      109.6530  115.6660  140.1300 C.3     2  MOL2        0.1341
    902  C90      109.6840  114.1470  139.8020 C.3     2  MOL2       -0.0244
    903  S90      118.8280  117.7870  138.4490 S.3     2  MOL2       -0.0897
    904  C90      117.8320  116.4110  137.8050 C.3     2  MOL2        0.0162
    905  C90      118.4840  115.3010  136.9840 C.3     2  MOL2       -0.0305
    906  C90      117.3390  114.4850  136.4280 C.3     2  MOL2        0.0050
    907  S90      117.8080  112.9490  135.6390 S.3     2  MOL2       -0.0928
    908  C90      116.9400  115.8510  138.9020 C.3     2  MOL2       -0.0403
    909  C90      115.4760  116.1870  138.5840 C.3     2  MOL2       -0.0515
    910  C91      114.3670  115.2890  139.1010 C.3     2  MOL2       -0.0429
    911  C91      113.1650  116.0000  139.7190 C.3     2  MOL2        0.0450
    912  C91      111.7590  115.8780  139.1960 C.2     2  MOL2        0.3074
    913  O91      110.9740  116.2010  140.2480 O.3     2  MOL2       -0.4582
    914  O91      111.3100  115.5600  138.1310 O.2     2  MOL2       -0.2508
    915  S91      116.0550  112.1870  136.2920 S.3     2  MOL2       -0.0897
    916  C91       96.2280  107.4790  124.7090 C.3     2  MOL2       -0.0559
    917  C91       97.5070  107.3790  123.9070 C.3     2  MOL2       -0.0533
    918  C91       98.6020  107.7500  124.9120 C.3     2  MOL2       -0.0531
    919  C91       99.8080  108.1970  124.1810 C.3     2  MOL2       -0.0531
    920  C92      101.1170  108.3360  124.8870 C.3     2  MOL2       -0.0531
    921  C92      102.1180  108.5440  123.7520 C.3     2  MOL2       -0.0531
    922  C92      103.5710  108.1540  123.9710 C.3     2  MOL2       -0.0531
    923  C92      104.0990  107.8500  125.3770 C.3     2  MOL2       -0.0530
    924  C92      105.1320  106.7630  125.4140 C.3     2  MOL2       -0.0500
    925  C92      106.3170  107.1970  126.2160 C.3     2  MOL2       -0.0185
    926  C92      107.0590  106.2070  127.0710 C.3     2  MOL2        0.0925
    927  C92       94.9520  106.6870  124.6160 C.3     2  MOL2       -0.0653
    928  C92      107.0260  108.1420  130.1440 C.3     2  MOL2        0.0537
    929  C92      107.7510  107.2110  129.2300 C.2     2  MOL2        0.3099
    930  O93      106.8460  106.7610  128.3590 O.3     2  MOL2       -0.4644
    931  O93      108.9120  106.9080  129.2780 O.2     2  MOL2       -0.2505
    932  C93      105.5040  108.0910  129.8460 C.3     2  MOL2       -0.0523
    933  C93      107.8260  109.5270  130.2340 C.3     2  MOL2       -0.0394
    934  C93      108.8960  112.6390  132.0520 C.3     2  MOL2       -0.0497
    935 5H93      103.9380   98.4310  119.3090 H       2  MOL2        0.2951
    936 6H93      105.5650   99.9980  120.5720 H       2  MOL2        0.0377
    937 7H93      105.5290   98.5630  119.6190 H       2  MOL2        0.0377
    938 8H93      107.1920   98.2370  121.9990 H       2  MOL2        0.0270
    939 9H93      107.6030   99.7350  121.2950 H       2  MOL2        0.0270
    940 0H94      108.8880   99.1280  119.7790 H       2  MOL2        0.0266
    941 1H94      108.4540   97.6050  119.3210 H       2  MOL2        0.0266
    942 2H94      109.5120   98.4090  122.0860 H       2  MOL2        0.0276
    943 3H94      110.5020   98.5160  120.6110 H       2  MOL2        0.0276
    944 4H94      112.7740   93.9660  120.5480 H       2  MOL2        0.0385
    945 5H94      111.8660   94.2120  121.9430 H       2  MOL2        0.0385
    946 6H94      111.4420   96.4530  119.6880 H       2  MOL2        0.0284
    947 7H94      112.8320   96.1050  120.5990 H       2  MOL2        0.0284
    948 8H94      100.5010   89.6030  111.0420 H       2  MOL2        0.0276
    949 9H94      102.1500   89.3960  110.6520 H       2  MOL2        0.0276
    950 0H95       98.9520   91.8090  109.6160 H       2  MOL2        0.0240
    951 1H95       99.1280   90.1560  109.4620 H       2  MOL2        0.0240
    952 2H95       99.7000   91.1600  108.1960 H       2  MOL2        0.0240
    953 3H95      101.9070   95.4500  110.8350 H       2  MOL2        0.0735
    954 4H95      102.0630   94.5870  112.3240 H       2  MOL2        0.0735
    955 5H95      103.7970   95.9490  111.9520 H       2  MOL2        0.0765
    956 6H95      105.3850   94.5780  112.7190 H       2  MOL2        0.0266
    957 7H95      104.5460   93.1270  112.4950 H       2  MOL2        0.0266
    958 8H95      103.6780   94.3310  113.3850 H       2  MOL2        0.0266
    959 9H95      113.0680   95.6830  111.9720 H       2  MOL2        0.0421
    960 0H96      112.0120   94.0450  114.1410 H       2  MOL2        0.0284
    961 1H96      113.5310   94.6480  113.6310 H       2  MOL2        0.0284
    962 2H96      112.4190   91.8340  113.7570 H       2  MOL2        0.0385
    963 3H96      113.5920   92.7420  114.5280 H       2  MOL2        0.0385
    964 4H96      110.7640   96.5510  111.6410 H       2  MOL2        0.0276
    965 5H96      112.0570   96.5620  110.6270 H       2  MOL2        0.0276
    966 6H96      110.7990   95.8260  108.8420 H       2  MOL2        0.0266
    967 7H96      110.4060   97.2560  109.7580 H       2  MOL2        0.0266
    968 8H96      108.9100   95.2220  108.3060 H       2  MOL2        0.0270
    969 9H96      108.9090   96.9330  108.3520 H       2  MOL2        0.0270
    970 0H97      106.8700   95.8150  108.1780 H       2  MOL2        0.0377
    971 1H97      107.1890   97.1900  109.1180 H       2  MOL2        0.0377
    972 2H97      111.9980   97.6580  121.5910 H       2  MOL2        0.0421
    973 3H97      106.9050   84.2790  104.6950 H       2  MOL2        0.0540
    974 4H97      107.4130   84.7900  106.3730 H       2  MOL2        0.0540
    975 5H97      104.4370   83.8610  104.3610 H       2  MOL2        0.0280
    976 6H97      104.8660   85.4270  103.8350 H       2  MOL2        0.0280
    977 7H97      103.4450   85.3080  104.8710 H       2  MOL2        0.0280
    978 8H97      105.0570   87.1260  109.7920 H       2  MOL2        0.0735
    979 9H97      106.4480   86.0710  110.0690 H       2  MOL2        0.0735
    980 0H98      106.6070   88.9970  109.4270 H       2  MOL2        0.0765
    981 1H98      105.7700   87.9920  111.4090 H       2  MOL2        0.0266
    982 2H98      107.1220   88.9790  111.7830 H       2  MOL2        0.0266
    983 3H98      107.2960   87.2240  111.7820 H       2  MOL2        0.0266
    984 4H98      115.2600   89.6090  111.2870 H       2  MOL2        0.0421
    985 5H98      117.6230   88.4820  112.2270 H       2  MOL2        0.0284
    986 6H98      117.2140   89.9280  111.3000 H       2  MOL2        0.0284
    987 7H98      115.9790   87.8240  109.8910 H       2  MOL2        0.0377
    988 8H98      117.4990   87.1350  110.5580 H       2  MOL2        0.0377
    989 9H98      115.5390   86.6480  111.2940 H       2  MOL2        0.0276
    990 0H99      114.4350   86.8150  112.5390 H       2  MOL2        0.0276
    991 1H99      112.7520   86.7860  111.5290 H       2  MOL2        0.0266
    992 2H99      113.6900   85.7100  110.6010 H       2  MOL2        0.0266
    993 3H99      111.5500   86.0830  110.2490 H       2  MOL2        0.0270
    994 4H99      112.5260   85.8870  109.0810 H       2  MOL2        0.0270
    995 5H99      110.6290   86.2500  108.1420 H       2  MOL2        0.0377
    996 6H99      111.3870   87.6770  107.6620 H       2  MOL2        0.0377
    997 7H99      117.6690   87.1960  106.9040 H       2  MOL2        0.0340
    998 8H99      116.5760   88.4680  106.6050 H       2  MOL2        0.0340
    999 9H99      116.0900   87.2530  107.7270 H       2  MOL2        0.0340
   1000  H10      101.5640  103.6990  117.6680 H       2  MOL2        0.0540
   1001  H10      102.3570  102.1940  116.9880 H       2  MOL2        0.0540
   1002  H10       99.9750  102.2870  120.3310 H       2  MOL2        0.0280
   1003  H10       98.7690  101.8410  119.1220 H       2  MOL2        0.0280
   1004  H10       99.5350  103.4100  119.0000 H       2  MOL2        0.0280
   1005  H10      100.3170   99.2090  116.2690 H       2  MOL2        0.0735
   1006  H10      101.9130   99.0480  115.6670 H       2  MOL2        0.0735
   1007  H10      100.3730   97.6500  117.8180 H       2  MOL2        0.0765
   1008  H10      100.7920   95.5570  116.3410 H       2  MOL2        0.0266
   1009  H10      101.4020   96.6930  115.1460 H       2  MOL2        0.0266
   1010  H10       99.7740   96.8680  115.7950 H       2  MOL2        0.0266
   1011  H10      107.6630   94.2920  119.0550 H       2  MOL2        0.0421
   1012  H10      107.6870   95.2320  117.1690 H       2  MOL2        0.0284
   1013  H10      108.7080   95.8320  118.4170 H       2  MOL2        0.0284
   1014  H10      110.2570   96.5330  117.2270 H       2  MOL2        0.0385
   1015  H10      109.0770   96.8430  116.3350 H       2  MOL2        0.0385
   1016  H10      106.7770   92.4250  118.8490 H       2  MOL2        0.0276
   1017  H10      107.1130   92.2010  117.2580 H       2  MOL2        0.0276
   1018  H10      105.2530   93.1450  116.9760 H       2  MOL2        0.0266
   1019  H10      105.9420   94.7040  117.2620 H       2  MOL2        0.0266
   1020  H10      104.3100   93.6750  119.5000 H       2  MOL2        0.0270
   1021  H10      103.5980   93.6540  117.9760 H       2  MOL2        0.0270
   1022  H10      104.0680   96.1460  119.6400 H       2  MOL2        0.0377
   1023  H10      102.7720   95.3410  119.1890 H       2  MOL2        0.0377
   1024  H10       93.3350   79.1190  101.2110 H       2  MOL2        0.0263
   1025  H10       93.4450   79.5090   99.5460 H       2  MOL2        0.0263
   1026  H10       93.9880   81.1810  101.9420 H       2  MOL2        0.0265
   1027  H10       94.0120   81.9070  100.3590 H       2  MOL2        0.0265
   1028  H10       96.1480   80.6710   99.8960 H       2  MOL2        0.0265
   1029  H10       96.1350   80.0040  101.5090 H       2  MOL2        0.0265
   1030  H10       96.3430   82.0030  102.5500 H       2  MOL2        0.0265
   1031  H10       95.5230   82.9130  101.3020 H       2  MOL2        0.0265
   1032  H10       97.9150   82.7950  100.0940 H       2  MOL2        0.0265
   1033  H10       98.4480   82.4900  101.7010 H       2  MOL2        0.0265
   1034  H10       96.3790   84.6780  101.6710 H       2  MOL2        0.0265
   1035  H10       97.5780   84.9830  100.4570 H       2  MOL2        0.0265
   1036  H10       99.1380   85.5680  101.9020 H       2  MOL2        0.0265
   1037  H10       98.9540   84.0740  102.8140 H       2  MOL2        0.0265
   1038  H10       97.3030   85.1130  104.3020 H       2  MOL2        0.0265
   1039  H10       97.3720   86.6140  103.4140 H       2  MOL2        0.0265
   1040  H10       99.6050   86.9530  104.0310 H       2  MOL2        0.0266
   1041  H10       99.9580   85.2660  104.0620 H       2  MOL2        0.0266
   1042  H10       99.4660   85.0010  106.2900 H       2  MOL2        0.0298
   1043  H10       98.8310   86.6420  106.5010 H       2  MOL2        0.0298
   1044  H10      100.9220   87.4060  105.4110 H       2  MOL2        0.0697
   1045  H10      101.6600   85.8750  105.8940 H       2  MOL2        0.0697
   1046  H10       91.7940   81.5400  100.1220 H       2  MOL2        0.0230
   1047  H10       91.6040   80.7670  101.6940 H       2  MOL2        0.0230
   1048  H10       91.0470   79.9730  100.2470 H       2  MOL2        0.0230
   1049  H10      102.6380   87.1730  109.4620 H       2  MOL2        0.0411
   1050  H10      100.5740   86.2120  111.2480 H       2  MOL2        0.0238
   1051  H10      101.0810   87.8290  111.6330 H       2  MOL2        0.0238
   1052  H10      102.2660   86.6240  111.5270 H       2  MOL2        0.0238
   1053  H10      100.0950   88.6410  108.7360 H       2  MOL2        0.0273
   1054  H10      101.7030   88.9770  108.2640 H       2  MOL2        0.0273
   1055  H10      102.0980   90.7340  108.1180 H       2  MOL2        0.0240
   1056  H10      102.8140   92.0380  109.0150 H       2  MOL2        0.0240
   1057  H10      101.3400   92.3140  108.1210 H       2  MOL2        0.0240
   1058  H10      125.4190  102.0310  132.8460 H       2  MOL2        0.2951
   1059  H10      124.5950  103.6230  132.5010 H       2  MOL2        0.0377
   1060  H10      124.7310  103.4810  130.7400 H       2  MOL2        0.0377
   1061  H10      126.2740  105.8390  131.4490 H       2  MOL2        0.0270
   1062  H10      124.8400  105.8610  132.4630 H       2  MOL2        0.0270
   1063  H10      123.5130  105.2280  130.3860 H       2  MOL2        0.0266
   1064  H10      124.8760  105.3950  129.5340 H       2  MOL2        0.0266
   1065  H10      124.4030  108.0650  130.1950 H       2  MOL2        0.0276
   1066  H10      123.1560  107.2370  131.1200 H       2  MOL2        0.0276
   1067  H10      121.5270  106.9430  126.9510 H       2  MOL2        0.0385
   1068  H10      121.6580  105.2110  126.9100 H       2  MOL2        0.0385
   1069  H10      122.9300  105.2630  128.5680 H       2  MOL2        0.0284
   1070  H10      121.5580  105.5830  129.6120 H       2  MOL2        0.0284
   1071  H10      120.3300   97.0060  121.4100 H       2  MOL2        0.0276
   1072  H10      121.4060   97.8460  120.3140 H       2  MOL2        0.0276
   1073  H10      119.8870   94.8710  120.9460 H       2  MOL2        0.0240
   1074  H10      121.0190   94.1620  119.8140 H       2  MOL2        0.0240
   1075  H10      119.3290   94.3340  119.3440 H       2  MOL2        0.0240
   1076  H10      119.1660   98.6050  117.5240 H       2  MOL2        0.0735
   1077  H10      120.2220   99.2930  118.6990 H       2  MOL2        0.0735
   1078  H10      119.1510  100.9200  117.4610 H       2  MOL2        0.0765
   1079  H10      117.3770  102.1880  118.0410 H       2  MOL2        0.0266
   1080  H10      116.8530  101.1590  119.3670 H       2  MOL2        0.0266
   1081  H10      116.5070  100.7080  117.7040 H       2  MOL2        0.0266
   1082  H10      115.5610  101.8790  123.8040 H       2  MOL2        0.0421
   1083  H10      113.8440  103.4820  121.8010 H       2  MOL2        0.0284
   1084  H10      113.4720  102.9680  123.5780 H       2  MOL2        0.0284
   1085  H10      112.0860  103.0220  121.2580 H       2  MOL2        0.0385
   1086  H10      111.8700  103.5490  122.7690 H       2  MOL2        0.0385
   1087  H10      116.7100  103.3900  121.6170 H       2  MOL2        0.0276
   1088  H10      115.8860  101.9840  121.1770 H       2  MOL2        0.0276
   1089  H10      117.7290  100.5830  122.3830 H       2  MOL2        0.0266
   1090  H10      117.8640  101.7530  123.5110 H       2  MOL2        0.0266
   1091  H10      119.7450  101.0440  121.9550 H       2  MOL2        0.0270
   1092  H10      119.7110  102.4560  122.8600 H       2  MOL2        0.0270
   1093  H10      120.7250  103.2250  121.0280 H       2  MOL2        0.0377
   1094  H10      119.1040  103.8250  120.7840 H       2  MOL2        0.0377
   1095  H10      123.1180  107.7610  128.2240 H       2  MOL2        0.0421
   1096  H10      100.8630  102.0230  123.0860 H       2  MOL2        0.0540
   1097  H10       99.3310  101.6920  123.9300 H       2  MOL2        0.0540
   1098  H10       99.9870  100.7090  126.7530 H       2  MOL2        0.0280
   1099  H10      100.0860  102.4930  126.5940 H       2  MOL2        0.0280
   1100  H11      101.4320  101.6280  127.2630 H       2  MOL2        0.0280
   1101  H11      104.5010  102.0850  122.7100 H       2  MOL2        0.0735
   1102  H11      104.7500  102.3210  124.4300 H       2  MOL2        0.0735
   1103  H11      105.1820   99.9140  122.7860 H       2  MOL2        0.0765
   1104  H11      106.3990  101.3190  121.8960 H       2  MOL2        0.0266
   1105  H11      107.6700  100.7930  122.9750 H       2  MOL2        0.0266
   1106  H11      106.8580  102.2710  123.2380 H       2  MOL2        0.0266
   1107  H11      110.5110   98.0700  124.1160 H       2  MOL2        0.0421
   1108  H11      112.4070   98.8100  126.1080 H       2  MOL2        0.0284
   1109  H11      113.1940   98.1190  124.7360 H       2  MOL2        0.0284
   1110  H11      111.0160   96.5260  125.8650 H       2  MOL2        0.0385
   1111  H11      112.6080   96.6860  126.7380 H       2  MOL2        0.0385
   1112  H11      109.6390  100.3340  124.7400 H       2  MOL2        0.0276
   1113  H11      110.5380  100.2200  126.1200 H       2  MOL2        0.0276
   1114  H11      110.1030   98.2300  126.8360 H       2  MOL2        0.0266
   1115  H11      109.3760   97.5430  125.5290 H       2  MOL2        0.0266
   1116  H11      108.0700   99.1410  127.7600 H       2  MOL2        0.0270
   1117  H11      108.0380   97.4610  127.6410 H       2  MOL2        0.0270
   1118  H11      105.9570   98.3920  127.8030 H       2  MOL2        0.0377
   1119  H11      106.0210   97.2430  126.5240 H       2  MOL2        0.0377
   1120  H11      125.7260  108.5340  127.8050 H       2  MOL2        0.0540
   1121  H11      124.4910  107.5990  126.7480 H       2  MOL2        0.0540
   1122  H11      126.8670  105.4040  129.4650 H       2  MOL2        0.0280
   1123  H11      126.5270  107.1050  129.7210 H       2  MOL2        0.0280
   1124  H11      127.7660  106.6380  128.5560 H       2  MOL2        0.0280
   1125  H11      124.0650  104.5430  124.4190 H       2  MOL2        0.0735
   1126  H11      124.9140  103.6870  125.5340 H       2  MOL2        0.0735
   1127  H11      121.9560  104.1060  125.4750 H       2  MOL2        0.0765
   1128  H11      122.1630  103.0250  123.6870 H       2  MOL2        0.0266
   1129  H11      122.0140  101.6760  124.7090 H       2  MOL2        0.0266
   1130  H11      123.6400  102.1860  124.0820 H       2  MOL2        0.0266
   1131  H11      116.9740  105.9480  130.4660 H       2  MOL2        0.0421
   1132  H11      115.8260  106.6580  128.7910 H       2  MOL2        0.0284
   1133  H11      117.1720  106.8240  127.7380 H       2  MOL2        0.0284
   1134  H11      115.1510  105.7390  127.0900 H       2  MOL2        0.0385
   1135  H11      115.7240  104.2070  127.8450 H       2  MOL2        0.0385
   1136  H11      118.2220  103.9940  128.6860 H       2  MOL2        0.0276
   1137  H11      117.1400  103.4550  129.8600 H       2  MOL2        0.0276
   1138  H11      118.8940  103.2050  131.3600 H       2  MOL2        0.0266
   1139  H11      119.6550  104.7060  130.9070 H       2  MOL2        0.0266
   1140  H11      119.5160  102.2080  129.2820 H       2  MOL2        0.0270
   1141  H11      120.4360  102.0520  130.6860 H       2  MOL2        0.0270
   1142  H11      121.1950  101.2780  128.9430 H       2  MOL2        0.0377
   1143  H11      122.4570  102.2850  129.3580 H       2  MOL2        0.0377
   1144  H11      136.6820   93.9370  119.9580 H       2  MOL2        0.0263
   1145  H11      135.7270   94.1970  118.5020 H       2  MOL2        0.0263
   1146  H11      134.9260   92.2080  120.6440 H       2  MOL2        0.0265
   1147  H11      134.0530   92.6150  119.1630 H       2  MOL2        0.0265
   1148  H11      134.8370   95.0130  120.6510 H       2  MOL2        0.0265
   1149  H11      133.9280   94.0990  121.6910 H       2  MOL2        0.0265
   1150  H11      132.1940   93.8050  119.8260 H       2  MOL2        0.0265
   1151  H11      133.1430   94.7110  118.7700 H       2  MOL2        0.0265
   1152  H11      132.2250   96.7880  119.5520 H       2  MOL2        0.0265
   1153  H11      132.4300   96.4000  121.1470 H       2  MOL2        0.0265
   1154  H11      130.6030   94.5910  120.5410 H       2  MOL2        0.0265
   1155  H11      130.5780   95.3120  118.9680 H       2  MOL2        0.0265
   1156  H11      129.2350   95.7770  121.5400 H       2  MOL2        0.0265
   1157  H11      128.6550   95.3860  119.9830 H       2  MOL2        0.0265
   1158  H11      127.6820   97.3000  120.2630 H       2  MOL2        0.0265
   1159  H11      129.0660   98.2140  119.9500 H       2  MOL2        0.0265
   1160  H11      127.7560   98.7200  121.9180 H       2  MOL2        0.0266
   1161  H11      129.2690   97.9870  122.5130 H       2  MOL2        0.0266
   1162  H11      126.8890   97.2300  123.5170 H       2  MOL2        0.0298
   1163  H11      128.2920   96.2270  123.3930 H       2  MOL2        0.0298
   1164  H11      126.3580   95.0690  122.7310 H       2  MOL2        0.0697
   1165  H11      127.2190   95.1310  121.2700 H       2  MOL2        0.0697
   1166  H11      137.6450   92.8270  118.2020 H       2  MOL2        0.0230
   1167  H11      136.0960   92.2230  117.5600 H       2  MOL2        0.0230
   1168  H11      136.7760   91.5020  119.0570 H       2  MOL2        0.0230
   1169  H11      123.4020   96.3340  119.4110 H       2  MOL2        0.0411
   1170  H11      122.9440   98.2440  121.6410 H       2  MOL2        0.0238
   1171  H11      123.3650   98.5740  120.0050 H       2  MOL2        0.0238
   1172  H11      124.6450   98.2600  121.0880 H       2  MOL2        0.0238
   1173  H11      122.3100   96.2790  122.2530 H       2  MOL2        0.0273
   1174  H11      122.0630   94.9720  121.1240 H       2  MOL2        0.0273
   1175  H11      121.9990   96.2370  118.0910 H       2  MOL2        0.0240
   1176  H11      120.7290   97.3670  117.5540 H       2  MOL2        0.0240
   1177  H11      120.5470   95.6690  117.3220 H       2  MOL2        0.0240
   1178  H11      109.8880  117.8030  143.0250 H       2  MOL2        0.2951
   1179  H11      110.6070  119.2490  141.4970 H       2  MOL2        0.0377
   1180  H11      111.5230  119.3900  142.9900 H       2  MOL2        0.0377
   1181  H11      111.2090  121.7670  143.1350 H       2  MOL2        0.0270
   1182  H11      110.3500  121.9620  141.7430 H       2  MOL2        0.0270
   1183  H11      112.1500  121.3440  140.4250 H       2  MOL2        0.0266
   1184  H11      113.0360  121.6180  142.0410 H       2  MOL2        0.0266
   1185  H11      114.0560  123.0840  141.2280 H       2  MOL2        0.0276
   1186  H11      113.1740  123.1930  139.7150 H       2  MOL2        0.0276
   1187  H11      117.5660  121.2590  137.8700 H       2  MOL2        0.0385
   1188  H11      117.8260  120.9630  139.5990 H       2  MOL2        0.0385
   1189  H11      115.5080  120.2100  139.7680 H       2  MOL2        0.0284
   1190  H11      115.0990  120.6980  138.1640 H       2  MOL2        0.0284
   1191  H11      109.5870  110.0480  131.5640 H       2  MOL2        0.0276
   1192  H11      108.9750  111.1520  130.4280 H       2  MOL2        0.0276
   1193  H11      106.1700  111.1160  133.1050 H       2  MOL2        0.0240
   1194  H11      106.2080  111.8120  131.5090 H       2  MOL2        0.0240
   1195  H11      106.7070  112.7540  132.9790 H       2  MOL2        0.0240
   1196  H11      109.6210  111.7700  135.8060 H       2  MOL2        0.0735
   1197  H11      111.1430  110.9500  135.4540 H       2  MOL2        0.0735
   1198  H11      110.7250  113.7020  134.4410 H       2  MOL2        0.0765
   1199  H11      112.2730  113.8560  136.7100 H       2  MOL2        0.0266
   1200  H12      111.5940  112.2570  136.9940 H       2  MOL2        0.0266
   1201  H12      110.5260  113.6510  136.9270 H       2  MOL2        0.0266
   1202  H12      116.6920  110.4570  134.8520 H       2  MOL2        0.0421
   1203  H12      117.2280  108.9590  137.1560 H       2  MOL2        0.0284
   1204  H12      117.6180  110.5760  137.7370 H       2  MOL2        0.0284
   1205  H12      118.5680  110.0360  134.9880 H       2  MOL2        0.0385
   1206  H12      119.0690  108.7540  136.0940 H       2  MOL2        0.0385
   1207  H12      115.1490  109.3410  137.0790 H       2  MOL2        0.0276
   1208  H12      115.4210  108.7570  135.4460 H       2  MOL2        0.0276
   1209  H12      113.6310  111.1570  136.2340 H       2  MOL2        0.0266
   1210  H12      113.0940  109.5640  135.9460 H       2  MOL2        0.0266
   1211  H12      112.8310  110.5090  133.7240 H       2  MOL2        0.0270
   1212  H12      114.4350  109.8080  133.6260 H       2  MOL2        0.0270
   1213  H12      114.1580  112.1570  132.7180 H       2  MOL2        0.0377
   1214  H12      115.4770  112.0540  133.8820 H       2  MOL2        0.0377
   1215  H12      115.7120  121.9720  140.7670 H       2  MOL2        0.0412
   1216  H12      118.1330  124.3990  139.9860 H       2  MOL2        0.0341
   1217  H12      118.2130  122.8700  139.0880 H       2  MOL2        0.0341
   1218  H12      117.7760  122.8680  140.8360 H       2  MOL2        0.0341
   1219  H12      115.4580  104.5080  131.8630 H       2  MOL2        0.0540
   1220  H12      116.0240  102.7660  131.6780 H       2  MOL2        0.0540
   1221  H12      114.2880  101.2750  130.2850 H       2  MOL2        0.0280
   1222  H12      115.1610  101.9840  128.9100 H       2  MOL2        0.0280
   1223  H12      113.3900  102.0890  128.9930 H       2  MOL2        0.0280
   1224  H12      113.2860  106.7380  128.8510 H       2  MOL2        0.0735
   1225  H12      112.0560  106.7390  130.0780 H       2  MOL2        0.0735
   1226  H12      113.6940  108.5630  129.1650 H       2  MOL2        0.0765
   1227  H12      113.2690  110.4340  130.6880 H       2  MOL2        0.0266
   1228  H12      113.0490  109.3670  131.9700 H       2  MOL2        0.0266
   1229  H12      111.8500  109.4650  130.5960 H       2  MOL2        0.0266
   1230  H12      120.9530  111.3340  134.0050 H       2  MOL2        0.0421
   1231  H12      123.2970  110.2570  133.5030 H       2  MOL2        0.0284
   1232  H12      122.5350  111.5710  132.7090 H       2  MOL2        0.0284
   1233  H12      123.1160  108.9660  131.5740 H       2  MOL2        0.0385
   1234  H12      123.9420  110.4530  131.3720 H       2  MOL2        0.0385
   1235  H12      120.1930  109.8440  131.7170 H       2  MOL2        0.0276
   1236  H12      119.1720  110.7260  132.7700 H       2  MOL2        0.0276
   1237  H12      119.2390  108.2730  134.0940 H       2  MOL2        0.0266
   1238  H12      119.3830  107.9090  132.3790 H       2  MOL2        0.0266
   1239  H12      117.3650  109.9890  133.1690 H       2  MOL2        0.0270
   1240  H12      116.9500  108.3190  133.5070 H       2  MOL2        0.0270
   1241  H12      117.3620  107.8390  130.9910 H       2  MOL2        0.0377
   1242  H12      117.8060  109.5500  130.8820 H       2  MOL2        0.0377
   1243  H12      107.3050  120.9460  140.9700 H       2  MOL2        0.0540
   1244  H12      108.3030  119.4340  141.1640 H       2  MOL2        0.0540
   1245  H12      104.2820  118.9960  140.2510 H       2  MOL2        0.0280
   1246  H12      105.0110  119.8950  138.8980 H       2  MOL2        0.0280
   1247  H12      104.8840  120.6490  140.4540 H       2  MOL2        0.0280
   1248  H12      107.8360  115.8970  139.0610 H       2  MOL2        0.0735
   1249  H12      109.0850  117.1030  138.6340 H       2  MOL2        0.0735
   1250  H12      109.3290  115.8340  141.1450 H       2  MOL2        0.0765
   1251  H12      110.3480  113.6410  140.5180 H       2  MOL2        0.0266
   1252  H12      110.0750  113.8840  138.8170 H       2  MOL2        0.0266
   1253  H12      108.6930  113.6770  139.8360 H       2  MOL2        0.0266
   1254  H12      117.1280  116.8730  137.1260 H       2  MOL2        0.0421
   1255  H12      118.9610  114.6140  137.6540 H       2  MOL2        0.0284
   1256  H12      119.2310  115.6290  136.2480 H       2  MOL2        0.0284
   1257  H12      116.6640  115.0350  135.7760 H       2  MOL2        0.0385
   1258  H12      116.7390  114.2090  137.2960 H       2  MOL2        0.0385
   1259  H12      117.2940  116.2630  139.8420 H       2  MOL2        0.0276
   1260  H12      117.0740  114.7870  139.0410 H       2  MOL2        0.0276
   1261  H12      115.3510  116.1780  137.4940 H       2  MOL2        0.0266
   1262  H12      115.3170  117.2080  138.9200 H       2  MOL2        0.0266
   1263  H12      114.7990  114.7680  139.9440 H       2  MOL2        0.0270
   1264  H12      114.1320  114.5700  138.3010 H       2  MOL2        0.0270
   1265  H12      113.3510  117.0650  139.7730 H       2  MOL2        0.0377
   1266  H12      113.0370  115.6750  140.7620 H       2  MOL2        0.0377
   1267  H12       95.8860  108.5130  124.6860 H       2  MOL2        0.0263
   1268  H12       96.5710  107.2700  125.7140 H       2  MOL2        0.0263
   1269  H12       97.5390  108.0930  123.0670 H       2  MOL2        0.0265
   1270  H12       97.6940  106.3830  123.5010 H       2  MOL2        0.0265
   1271  H12       98.8170  106.9280  125.5970 H       2  MOL2        0.0265
   1272  H12       98.2890  108.5840  125.5270 H       2  MOL2        0.0265
   1273  H12       99.5430  109.1460  123.6990 H       2  MOL2        0.0265
   1274  H12       99.9870  107.4060  123.4590 H       2  MOL2        0.0265
   1275  H12      101.3170  107.4250  125.4530 H       2  MOL2        0.0265
   1276  H12      101.0920  109.1300  125.6380 H       2  MOL2        0.0265
   1277  H12      102.0800  109.5740  123.3670 H       2  MOL2        0.0265
   1278  H12      101.7980  107.9530  122.8780 H       2  MOL2        0.0265
   1279  H12      104.1460  108.9810  123.5480 H       2  MOL2        0.0265
   1280  H12      103.7640  107.2980  123.3210 H       2  MOL2        0.0265
   1281  H12      103.3310  107.6870  126.1460 H       2  MOL2        0.0265
   1282  H12      104.6920  108.6830  125.7060 H       2  MOL2        0.0265
   1283  H12      105.4970  106.6030  124.4050 H       2  MOL2        0.0266
   1284  H12      104.6490  105.9000  125.8750 H       2  MOL2        0.0266
   1285  H12      105.8640  107.8550  126.9520 H       2  MOL2        0.0298
   1286  H12      106.9920  107.7900  125.5800 H       2  MOL2        0.0298
   1287  H12      108.0840  106.1650  126.7140 H       2  MOL2        0.0697
   1288  H12      106.6580  105.2010  127.1280 H       2  MOL2        0.0697
   1289  H12       94.2910  107.1160  123.8780 H       2  MOL2        0.0230
   1290  H12       94.4600  106.8650  125.5790 H       2  MOL2        0.0230
   1291  H12       95.0380  105.6150  124.4470 H       2  MOL2        0.0230
   1292  H12      107.1220  107.5140  131.0040 H       2  MOL2        0.0411
   1293  H12      104.9440  108.6810  130.5630 H       2  MOL2        0.0238
   1294  H12      105.1000  107.0860  129.9240 H       2  MOL2        0.0238
   1295  H12      105.2330  108.3140  128.8170 H       2  MOL2        0.0238
   1296  H12      107.2650  110.3020  129.7140 H       2  MOL2        0.0273
   1297  H12      108.7030  109.2770  129.6350 H       2  MOL2        0.0273
   1298  H12      109.9520  112.3820  132.0250 H       2  MOL2        0.0240
   1299  H12      108.7520  113.4180  132.8030 H       2  MOL2        0.0240
   1300  H13      108.5570  112.9920  131.0780 H       2  MOL2        0.0240
   1301  O65       59.4020   67.6980  124.9340 O.2     3  MOL3       -0.2510
   1302  O65       59.8430   69.3440  123.5770 O.3     3  MOL3       -0.4806
   1303  C65       60.2380   68.2370  124.2590 C.2     3  MOL3        0.3047
   1304  C65       61.7950   68.0440  123.9620 C.3     3  MOL3        0.0448
   1305  C65       62.8060   66.8230  123.7580 C.3     3  MOL3       -0.0430
   1306  C65       63.9730   66.5460  122.6340 C.3     3  MOL3       -0.0515
   1307  C65       64.5490   64.9980  122.6570 C.3     3  MOL3       -0.0403
   1308  S65       63.4240   63.0390  117.6480 S.3     3  MOL3       -0.0928
   1309  C65       64.7980   62.8810  119.1690 C.3     3  MOL3        0.0050
   1310  C66       65.5630   63.7220  120.3780 C.3     3  MOL3       -0.0305
   1311  C66       58.7570   75.3930  114.2760 C.2     3  MOL3        0.3129
   1312  C66       58.6440   75.8150  112.7330 C.3     3  MOL3        0.0622
   1313  C66       58.0620   74.8710  111.6650 C.3     3  MOL3       -0.0370
   1314  C66       57.6740   76.9460  112.5370 C.3     3  MOL3       -0.0497
   1315  O66       57.8650   75.0350  114.9910 O.2     3  MOL3       -0.2502
   1316  O66       60.0720   75.5030  114.6930 O.3     3  MOL3       -0.4605
   1317  C66       60.7160   75.2600  116.0110 C.3     3  MOL3        0.1290
   1318  C66       62.0700   74.4870  116.1770 C.3     3  MOL3        0.1341
   1319  C66       61.6890   73.0700  116.0140 C.3     3  MOL3       -0.0244
   1320  C67       68.6340   69.6080  115.2750 C.3     3  MOL3        0.0162
   1321  C67       68.2580   68.1030  114.7490 C.3     3  MOL3       -0.0305
   1322  C67       67.9790   67.0580  113.5490 C.3     3  MOL3        0.0050
   1323  S67       69.0510   66.7210  112.0370 S.3     3  MOL3       -0.0928
   1324  C67       68.6970   71.2970  115.3200 C.3     3  MOL3       -0.0403
   1325  C67       68.4200   72.8930  115.0810 C.3     3  MOL3       -0.0515
   1326  C67       67.4360   74.1660  114.8770 C.3     3  MOL3       -0.0429
   1327  C67       66.0530   74.8920  115.2820 C.3     3  MOL3        0.0450
   1328  C67       64.6940   74.9570  116.1330 C.2     3  MOL3        0.3074
   1329  O67       63.4910   74.5210  115.6330 O.3     3  MOL3       -0.4582
   1330  O68       64.7540   75.4980  117.1880 O.2     3  MOL3       -0.2508
   1331  C68       65.1280   63.5730  121.8290 C.3     3  MOL3        0.0162
   1332  C68       60.5850   73.7450  106.0670 C.2     3  MOL3        0.3344
   1333  C68       61.1480   74.2610  104.7400 C.2     3  MOL3        0.0264
   1334  C68       62.0900   73.6040  104.0480 C.2     3  MOL3       -0.0890
   1335  C68       60.7690   75.5810  104.1230 C.3     3  MOL3       -0.0335
   1336  O68       59.7130   74.3740  106.6110 O.2     3  MOL3       -0.2453
   1337  O68       61.0740   72.5920  106.6270 O.3     3  MOL3       -0.4577
   1338  C68       61.1490   71.8790  107.9360 C.3     3  MOL3        0.1293
   1339  C68       62.3830   71.5930  108.9300 C.3     3  MOL3        0.1341
   1340  C69       61.6740   70.5050  109.7900 C.3     3  MOL3       -0.0244
   1341  C69       68.8680   65.6710  109.2230 C.3     3  MOL3        0.0162
   1342  C69       70.2770   65.2820  108.7810 C.3     3  MOL3       -0.0313
   1343  C69       70.4360   65.8990  107.4150 C.3     3  MOL3       -0.0056
   1344  S69       71.8140   67.0050  107.2270 S.3     3  MOL3       -0.1641
   1345  C69       67.7570   65.7680  107.9660 C.3     3  MOL3       -0.0403
   1346  C69       66.8040   66.9730  107.2480 C.3     3  MOL3       -0.0515
   1347  C69       66.1200   68.4770  106.8520 C.3     3  MOL3       -0.0429
   1348  C69       65.6840   70.1410  106.8980 C.3     3  MOL3        0.0450
   1349  C69       65.2160   71.4730  107.8580 C.2     3  MOL3        0.3074
   1350  O70       63.9220   71.6880  108.5450 O.3     3  MOL3       -0.4582
   1351  O70       65.9720   72.3760  107.9840 O.2     3  MOL3       -0.2508
   1352  C70       71.3600   68.0060  105.7530 C.3     3  MOL3       -0.0181
   1353  S70       68.4630   65.0420  110.9250 S.3     3  MOL3       -0.0897
   1354  C70       59.3340   72.7730  124.8560 C.2     3  MOL3        0.3344
   1355  C70       59.7730   73.3600  126.1080 C.2     3  MOL3        0.0264
   1356  C70       61.0390   73.8150  126.1900 C.2     3  MOL3       -0.0890
   1357  C70       58.7540   73.5130  127.1790 C.3     3  MOL3       -0.0335
   1358  O70       58.2500   72.2610  124.6960 O.2     3  MOL3       -0.2453
   1359  O70       60.1680   72.8560  123.8040 O.3     3  MOL3       -0.4577
   1360  C71       59.6560   73.4290  122.6240 C.3     3  MOL3        0.1293
   1361  C71       58.7870   72.5390  121.8090 C.3     3  MOL3        0.1341
   1362  C71       58.4340   73.2390  120.5040 C.3     3  MOL3       -0.0244
   1363  S71       62.3360   64.7670  117.0800 S.3     3  MOL3       -0.0897
   1364  C71       62.5400   66.4650  118.0110 C.3     3  MOL3        0.0162
   1365  C71       63.7490   67.3400  118.6650 C.3     3  MOL3       -0.0305
   1366  C71       65.2680   67.9180  118.6290 C.3     3  MOL3        0.0050
   1367  S71       66.8860   68.5280  117.9470 S.3     3  MOL3       -0.0928
   1368  C71       61.3140   67.1660  117.4420 C.3     3  MOL3       -0.0403
   1369  C71       60.6700   68.3490  118.1950 C.3     3  MOL3       -0.0515
   1370  C72       59.4650   68.5410  119.1590 C.3     3  MOL3       -0.0429
   1371  C72       59.4250   69.2090  120.5650 C.3     3  MOL3        0.0450
   1372  C72       59.9430   70.6010  120.8770 C.2     3  MOL3        0.3074
   1373  O72       59.0630   71.1330  121.7460 O.3     3  MOL3       -0.4582
   1374  O72       60.8710   71.1750  120.4110 O.2     3  MOL3       -0.2508
   1375  S72       68.5780   69.1530  117.0980 S.3     3  MOL3       -0.0897
   1376  C72       50.9570   82.8180   99.8160 C.3     3  MOL3       -0.0559
   1377  C72       52.0870   82.3750  100.7110 C.3     3  MOL3       -0.0533
   1378  C72       53.2980   81.5270  100.3090 C.3     3  MOL3       -0.0531
   1379  C72       54.0690   81.3080  101.6160 C.3     3  MOL3       -0.0531
   1380  C73       55.5800   81.1650  101.8040 C.3     3  MOL3       -0.0531
   1381  C73       55.9590   81.6360  103.2370 C.3     3  MOL3       -0.0531
   1382  C73       56.6120   80.5180  104.0340 C.3     3  MOL3       -0.0531
   1383  C73       56.0920   80.1040  105.4080 C.3     3  MOL3       -0.0530
   1384  C73       57.0170   78.9700  105.8160 C.3     3  MOL3       -0.0500
   1385  C73       56.6660   77.7130  106.5650 C.3     3  MOL3       -0.0185
   1386  C73       57.9560   77.0460  106.8930 C.3     3  MOL3        0.0925
   1387  C73       50.0180   83.6980  100.6580 C.3     3  MOL3       -0.0653
   1388  C73       57.5560   74.2930  109.1810 C.3     3  MOL3        0.0537
   1389  C73       57.3020   74.9980  107.8760 C.2     3  MOL3        0.3099
   1390  O74       57.8000   76.2380  108.0380 O.3     3  MOL3       -0.4644
   1391  O74       56.8560   74.6470  106.8120 O.2     3  MOL3       -0.2505
   1392  C74       56.6960   73.1490  109.7490 C.3     3  MOL3       -0.0523
   1393  C74       57.9410   75.3910  110.2260 C.3     3  MOL3       -0.0394
   1394  C74       59.9480   76.3790  112.2740 C.3     3  MOL3       -0.0497
   1395  O74       77.8190   50.2340  129.2450 O.2     3  MOL3       -0.2510
   1396  O74       75.7650   49.3090  129.0850 O.3     3  MOL3       -0.4806
   1397  C74       76.6710   50.2050  129.5630 C.2     3  MOL3        0.3047
   1398  C74       75.9550   51.2010  130.4410 C.3     3  MOL3        0.0448
   1399  C74       76.6830   51.8180  131.6550 C.3     3  MOL3       -0.0430
   1400  C75       76.5650   53.3180  131.5130 C.3     3  MOL3       -0.0515
   1401  C75       76.6610   54.2860  132.6790 C.3     3  MOL3       -0.0403
   1402  S75       73.4760   57.7300  130.7960 S.3     3  MOL3       -0.0928
   1403  C75       75.1620   57.1870  130.7140 C.3     3  MOL3        0.0050
   1404  C75       75.3420   55.7880  131.1910 C.3     3  MOL3       -0.0305
   1405  C75       72.2610   61.1600  119.2400 C.2     3  MOL3        0.3129
   1406  C75       73.2370   60.2230  118.5050 C.3     3  MOL3        0.0622
   1407  C75       73.6660   59.1650  119.4980 C.3     3  MOL3       -0.0370
   1408  C75       72.3200   59.4270  117.5780 C.3     3  MOL3       -0.0497
   1409  O75       71.1450   61.2730  118.8170 O.2     3  MOL3       -0.2502
   1410  O76       72.6820   61.7230  120.4490 O.3     3  MOL3       -0.4605
   1411  C76       73.8190   62.6000  120.5620 C.3     3  MOL3        0.1290
   1412  C76       74.0380   63.5050  121.7810 C.3     3  MOL3        0.1341
   1413  C76       73.1330   64.4870  122.5140 C.3     3  MOL3       -0.0244
   1414  C76       70.5150   62.3890  126.6530 C.3     3  MOL3        0.0162
   1415  C76       69.4150   63.6670  126.7320 C.3     3  MOL3       -0.0305
   1416  C76       68.1340   64.7230  126.7370 C.3     3  MOL3        0.0050
   1417  S76       66.3480   64.8840  126.2850 S.3     3  MOL3       -0.0928
   1418  C76       71.6520   62.6170  125.6640 C.3     3  MOL3       -0.0403
   1419  C76       72.2760   61.3050  125.0380 C.3     3  MOL3       -0.0515
   1420  C77       73.7950   61.0030  124.8140 C.3     3  MOL3       -0.0429
   1421  C77       74.9850   61.9820  124.8650 C.3     3  MOL3        0.0450
   1422  C77       75.2150   62.9130  123.7800 C.2     3  MOL3        0.3074
   1423  O77       74.3000   62.6070  122.8540 O.3     3  MOL3       -0.4582
   1424  O77       76.0360   63.7980  123.7080 O.2     3  MOL3       -0.2508
   1425  S77       75.3700   56.4480  133.8370 S.3     3  MOL3       -0.0897
   1426  C77       76.2440   55.7300  132.3980 C.3     3  MOL3        0.0162
   1427  C77       58.6790   67.3340  129.1700 C.2     3  MOL3        0.3344
   1428  C77       57.4550   68.0250  129.4620 C.2     3  MOL3        0.0264
   1429  C77       57.3100   69.3040  129.0810 C.2     3  MOL3       -0.0890
   1430  C78       56.4860   67.2160  130.2240 C.3     3  MOL3       -0.0335
   1431  O78       59.0430   66.3650  129.8010 O.2     3  MOL3       -0.2453
   1432  O78       59.3890   67.8090  128.1320 O.3     3  MOL3       -0.4577
   1433  C78       60.7120   67.3620  128.0370 C.3     3  MOL3        0.1293
   1434  C78       61.0910   66.4720  126.9310 C.3     3  MOL3        0.1341
   1435  C78       62.6840   66.6100  126.9460 C.3     3  MOL3       -0.0244
   1436  C78       64.8110   62.2360  125.0020 C.3     3  MOL3        0.0162
   1437  C78       65.1840   60.7740  124.6370 C.3     3  MOL3       -0.0305
   1438  C78       64.2460   59.9400  123.8180 C.3     3  MOL3        0.0050
   1439  S78       64.7500   60.0100  122.1280 S.3     3  MOL3       -0.0928
   1440  C79       63.9540   62.3270  126.2350 C.3     3  MOL3       -0.0403
   1441  C79       62.5300   61.7300  125.8560 C.3     3  MOL3       -0.0515
   1442  C79       61.0230   61.7690  126.4960 C.3     3  MOL3       -0.0429
   1443  C79       59.7270   62.8040  126.5990 C.3     3  MOL3        0.0450
   1444  C79       59.5210   64.2980  127.1800 C.2     3  MOL3        0.3074
   1445  O79       60.2950   65.2530  126.5570 O.3     3  MOL3       -0.4582
   1446  O79       58.8060   64.4770  128.1230 O.2     3  MOL3       -0.2508
   1447  S79       64.1880   61.9690  121.9950 S.3     3  MOL3       -0.0897
   1448  S79       65.9500   63.6890  124.6850 S.3     3  MOL3       -0.0897
   1449  C79       78.0050   55.1750  129.3370 C.2     3  MOL3        0.3344
   1450  C80       78.8810   54.7360  130.4320 C.2     3  MOL3        0.0264
   1451  C80       79.1900   55.7300  131.2360 C.2     3  MOL3       -0.0890
   1452  C80       79.3080   53.3300  130.7690 C.3     3  MOL3       -0.0335
   1453  O80       77.4590   54.3710  128.6270 O.2     3  MOL3       -0.2453
   1454  O80       77.7810   56.5110  129.0690 O.3     3  MOL3       -0.4577
   1455  C80       77.4370   56.6890  127.7010 C.3     3  MOL3        0.1293
   1456  C80       76.0200   56.8530  127.3760 C.3     3  MOL3        0.1341
   1457  C80       75.9280   57.4410  125.9510 C.3     3  MOL3       -0.0244
   1458  S80       72.7860   57.1770  132.6460 S.3     3  MOL3       -0.0897
   1459  C80       71.0720   57.4800  132.1470 C.3     3  MOL3        0.0162
   1460  C81       70.9990   59.0290  132.0330 C.3     3  MOL3       -0.0305
   1461  C81       70.4540   59.7780  130.8290 C.3     3  MOL3        0.0050
   1462  S81       71.8070   60.2530  129.6620 S.3     3  MOL3       -0.0928
   1463  C81       70.7800   56.6100  130.9210 C.3     3  MOL3       -0.0403
   1464  C81       71.3940   55.1880  130.8080 C.3     3  MOL3       -0.0515
   1465  C81       72.0240   54.7430  129.4300 C.3     3  MOL3       -0.0429
   1466  C81       73.1910   54.6510  128.3950 C.3     3  MOL3        0.0450
   1467  C81       73.9620   55.7530  127.7130 C.2     3  MOL3        0.3074
   1468  O81       75.2950   55.7110  127.9040 O.3     3  MOL3       -0.4582
   1469  O81       73.4870   56.4810  126.8960 O.2     3  MOL3       -0.2508
   1470  S82       71.6310   61.3740  127.8990 S.3     3  MOL3       -0.0897
   1471  C82       85.1270   51.0250  113.2840 C.3     3  MOL3       -0.0559
   1472  C82       83.6390   51.0050  113.5040 C.3     3  MOL3       -0.0533
   1473  C82       83.3740   51.2720  114.9800 C.3     3  MOL3       -0.0531
   1474  C82       82.8300   52.6920  115.1400 C.3     3  MOL3       -0.0531
   1475  C82       82.5780   53.2870  116.5500 C.3     3  MOL3       -0.0531
   1476  C82       81.2860   54.0240  116.3750 C.3     3  MOL3       -0.0531
   1477  C82       80.2290   54.5690  117.3020 C.3     3  MOL3       -0.0531
   1478  C82       80.2370   55.3550  118.5780 C.3     3  MOL3       -0.0530
   1479  C82       79.5890   54.6040  119.7080 C.3     3  MOL3       -0.0500
   1480  C83       78.2060   54.0280  119.3960 C.3     3  MOL3       -0.0185
   1481  C83       77.3800   54.6990  118.3070 C.3     3  MOL3        0.0925
   1482  C83       85.5460   50.8640  111.8720 C.3     3  MOL3       -0.0653
   1483  C83       75.5670   57.8070  118.6690 C.3     3  MOL3        0.0537
   1484  C83       76.0090   56.5900  117.9320 C.2     3  MOL3        0.3099
   1485  O83       76.9520   55.9950  118.6920 O.3     3  MOL3       -0.4644
   1486  O83       75.6180   56.1790  116.8610 O.2     3  MOL3       -0.2505
   1487  C83       76.1740   58.0260  120.0560 C.3     3  MOL3       -0.0523
   1488  C83       74.0780   57.8080  118.9150 C.3     3  MOL3       -0.0394
   1489  C83       74.3140   61.0180  117.7700 C.3     3  MOL3       -0.0497
   1490  O84       64.8240   57.1700  153.4790 O.2     3  MOL3       -0.2510
   1491  O84       64.3930   56.0980  151.5510 O.3     3  MOL3       -0.4806
   1492  C84       65.2210   56.6790  152.4720 C.2     3  MOL3        0.3047
   1493  C84       66.6660   56.6350  151.9800 C.3     3  MOL3        0.0448
   1494  C84       67.7340   57.1840  152.9970 C.3     3  MOL3       -0.0430
   1495  C84       69.3330   57.4000  152.8110 C.3     3  MOL3       -0.0516
   1496  C84       70.9360   57.5890  152.5860 C.3     3  MOL3       -0.0411
   1497  S84       72.9870   55.9030  147.9550 S.3     3  MOL3       -0.0928
   1498  C84       73.7190   56.3210  149.5770 C.3     3  MOL3        0.0049
   1499  C84       72.4810   56.9910  150.2240 C.3     3  MOL3       -0.0313
   1500  C85       64.3820   61.0710  140.5470 C.2     3  MOL3        0.3129
   1501  C85       64.6530   62.4790  140.0820 C.3     3  MOL3        0.0622
   1502  C85       65.1020   62.7400  138.6170 C.3     3  MOL3       -0.0370
   1503  C85       63.6080   63.3060  140.7340 C.3     3  MOL3       -0.0497
   1504  O85       63.3830   60.6740  141.0990 O.2     3  MOL3       -0.2502
   1505  O85       65.5260   60.3470  140.3920 O.3     3  MOL3       -0.4605
   1506  C85       65.6800   59.3170  141.3510 C.3     3  MOL3        0.1290
   1507  C85       66.8750   59.3950  142.2140 C.3     3  MOL3        0.1341
   1508  C85       66.6280   58.2780  143.2020 C.3     3  MOL3       -0.0244
   1509  C85       69.8540   55.0680  139.7540 C.3     3  MOL3        0.0162
   1510  C86       70.1990   53.5890  139.6050 C.3     3  MOL3       -0.0305
   1511  C86       71.4860   53.4560  138.8180 C.3     3  MOL3        0.0050
   1512  S86       72.9410   52.7390  139.5430 S.3     3  MOL3       -0.0928
   1513  C86       68.4380   55.2900  139.3380 C.3     3  MOL3       -0.0403
   1514  C86       67.7430   56.5290  139.8740 C.3     3  MOL3       -0.0515
   1515  C86       68.4120   57.7970  139.3360 C.3     3  MOL3       -0.0429
   1516  C86       69.5810   58.3030  140.1830 C.3     3  MOL3        0.0450
   1517  C86       69.0690   58.4640  141.5660 C.2     3  MOL3        0.3074
   1518  O86       67.9490   59.1570  141.3230 O.3     3  MOL3       -0.4582
   1519  O86       69.4980   58.1030  142.6330 O.2     3  MOL3       -0.2508
   1520  S87       73.7240   57.5210  152.6930 S.3     3  MOL3       -0.1607
   1521  C87       72.2300   57.1010  151.7610 C.3     3  MOL3        0.0058
   1522  C87       74.8360   56.1910  152.3190 C.3     3  MOL3       -0.0178
   1523  C87       67.3640   58.8420  132.1550 C.2     3  MOL3        0.3344
   1524  C87       67.3600   57.6750  131.2660 C.2     3  MOL3        0.0264
   1525  C87       67.7650   56.5030  131.7710 C.2     3  MOL3       -0.0890
   1526  C87       66.9430   57.8500  129.8310 C.3     3  MOL3       -0.0335
   1527  O87       67.0790   59.9280  131.7020 O.2     3  MOL3       -0.2453
   1528  O87       67.7330   58.7310  133.4800 O.3     3  MOL3       -0.4577
   1529  C87       67.8280   59.9900  134.1630 C.3     3  MOL3        0.1293
   1530  C88       68.7670   60.0020  135.3530 C.3     3  MOL3        0.1341
   1531  C88       68.3440   60.3340  136.8210 C.3     3  MOL3       -0.0244
   1532  C88       74.5230   54.2630  137.5410 C.3     3  MOL3        0.0162
   1533  C88       75.9980   54.2050  137.0460 C.3     3  MOL3       -0.0305
   1534  C88       76.6920   54.7940  135.8340 C.3     3  MOL3        0.0050
   1535  S88       76.6720   56.5440  135.3710 S.3     3  MOL3       -0.0928
   1536  C88       73.6510   55.3970  136.9670 C.3     3  MOL3       -0.0403
   1537  C88       72.3300   55.1210  136.2590 C.3     3  MOL3       -0.0515
   1538  C88       71.2960   56.1670  136.6500 C.3     3  MOL3       -0.0429
   1539  C88       71.4580   57.4230  135.8340 C.3     3  MOL3        0.0450
   1540  C89       70.4550   58.4330  136.3100 C.2     3  MOL3        0.3074
   1541  O89       69.7020   58.8840  135.2590 O.3     3  MOL3       -0.4582
   1542  O89       70.3820   58.7760  137.4580 O.2     3  MOL3       -0.2508
   1543  S89       73.7700   52.6150  137.7030 S.3     3  MOL3       -0.0897
   1544  C89       63.2580   59.5700  149.7880 C.2     3  MOL3        0.3344
   1545  C89       63.4960   60.2000  151.0790 C.2     3  MOL3        0.0264
   1546  C89       64.4400   59.5880  151.7810 C.2     3  MOL3       -0.0890
   1547  C89       62.7770   61.4140  151.5600 C.3     3  MOL3       -0.0335
   1548  O89       62.3240   59.8750  149.0790 O.2     3  MOL3       -0.2453
   1549  O89       64.1710   58.6180  149.3730 O.3     3  MOL3       -0.4577
   1550  C90       64.6090   58.7290  148.0180 C.3     3  MOL3        0.1293
   1551  C90       64.8380   57.3590  147.4870 C.3     3  MOL3        0.1341
   1552  C90       64.3510   57.0230  146.0510 C.3     3  MOL3       -0.0244
   1553  S90       73.9590   54.5850  146.6990 S.3     3  MOL3       -0.0897
   1554  C90       72.7960   55.0860  145.3970 C.3     3  MOL3        0.0162
   1555  C90       73.1760   54.9510  143.9250 C.3     3  MOL3       -0.0305
   1556  C90       72.0910   55.6740  143.1590 C.3     3  MOL3        0.0050
   1557  S90       72.1300   55.4520  141.3840 S.3     3  MOL3       -0.0928
   1558  C90       71.4160   54.5120  145.6780 C.3     3  MOL3       -0.0403
   1559  C90       70.4600   55.6540  146.0500 C.3     3  MOL3       -0.0515
   1560  C91       68.9720   55.5100  145.7810 C.3     3  MOL3       -0.0429
   1561  C91       68.0440   55.9410  146.9140 C.3     3  MOL3        0.0450
   1562  C91       67.0200   57.0360  146.7880 C.2     3  MOL3        0.3074
   1563  O91       66.1150   56.7710  147.7550 O.3     3  MOL3       -0.4582
   1564  O91       66.9090   57.9660  146.0400 O.2     3  MOL3       -0.2508
   1565  S91       70.1150   55.5950  141.4160 S.3     3  MOL3       -0.0897
   1566  C91       55.9840   73.1350  134.9260 C.3     3  MOL3       -0.0559
   1567  C91       57.3010   73.0320  134.1870 C.3     3  MOL3       -0.0533
   1568  C91       57.9930   71.8270  134.8320 C.3     3  MOL3       -0.0531
   1569  C91       59.4510   71.9140  134.5950 C.3     3  MOL3       -0.0531
   1570  C92       60.3330   70.7360  134.8510 C.3     3  MOL3       -0.0531
   1571  C92       61.6710   71.1500  134.2390 C.3     3  MOL3       -0.0531
   1572  C92       62.6320   70.0680  133.7710 C.3     3  MOL3       -0.0531
   1573  C92       62.4220   68.6050  134.1720 C.3     3  MOL3       -0.0530
   1574  C92       62.8120   67.6230  133.1070 C.3     3  MOL3       -0.0500
   1575  C92       63.6790   66.5480  133.6800 C.3     3  MOL3       -0.0185
   1576  C92       63.5650   65.1340  133.1810 C.3     3  MOL3        0.0925
   1577  C92       54.6290   73.5840  134.4500 C.3     3  MOL3       -0.0653
   1578  C92       63.2090   63.5360  136.4230 C.3     3  MOL3        0.0537
   1579  C92       63.7590   63.4990  135.0360 C.2     3  MOL3        0.3099
   1580  O93       63.1430   64.4730  134.3640 O.3     3  MOL3       -0.4644
   1581  O93       64.5780   62.7360  134.6020 O.2     3  MOL3       -0.2505
   1582  C93       62.0350   64.5480  136.4960 C.3     3  MOL3       -0.0523
   1583  C93       64.4190   63.5630  137.4730 C.3     3  MOL3       -0.0394
   1584  C93       65.9340   62.7780  140.8230 C.3     3  MOL3       -0.0497
   1585 5H93       60.5960   69.7830  123.1800 H       3  MOL3        0.2951
   1586 6H93       62.1340   68.5480  124.8560 H       3  MOL3        0.0377
   1587 7H93       61.8560   68.7560  123.1680 H       3  MOL3        0.0377
   1588 8H93       62.2190   65.9410  123.8650 H       3  MOL3        0.0270
   1589 9H93       63.4470   66.8220  124.6560 H       3  MOL3        0.0270
   1590 0H94       64.8200   67.0700  123.1170 H       3  MOL3        0.0266
   1591 1H94       63.9930   67.0770  121.6910 H       3  MOL3        0.0266
   1592 2H94       64.1830   64.7130  123.6360 H       3  MOL3        0.0276
   1593 3H94       65.5960   65.3530  122.7620 H       3  MOL3        0.0276
   1594 4H94       65.6010   62.4960  118.5550 H       3  MOL3        0.0385
   1595 5H94       64.4340   62.0060  119.6640 H       3  MOL3        0.0385
   1596 6H94       65.8540   64.7870  120.3950 H       3  MOL3        0.0284
   1597 7H94       66.5250   63.2280  120.3410 H       3  MOL3        0.0284
   1598 8H94       57.1130   74.5890  112.0960 H       3  MOL3        0.0276
   1599 9H94       58.5390   73.9380  111.4210 H       3  MOL3        0.0276
   1600 0H95       57.2780   77.3210  113.4420 H       3  MOL3        0.0240
   1601 1H95       56.7900   76.7270  111.9600 H       3  MOL3        0.0240
   1602 2H95       58.1530   77.7650  112.0150 H       3  MOL3        0.0240
   1603 3H95       60.8010   76.1950  116.5720 H       3  MOL3        0.0735
   1604 4H95       60.0190   74.6540  116.6210 H       3  MOL3        0.0735
   1605 5H95       62.1640   74.5310  117.2390 H       3  MOL3        0.0765
   1606 6H95       62.6250   72.5950  116.2260 H       3  MOL3        0.0266
   1607 7H95       61.4040   72.6650  115.0570 H       3  MOL3        0.0266
   1608 8H95       60.8580   72.8970  116.6830 H       3  MOL3        0.0266
   1609 9H95       69.7370   69.5160  115.3620 H       3  MOL3        0.0421
   1610 0H96       67.3730   67.8080  115.3500 H       3  MOL3        0.0284
   1611 1H96       69.0740   67.6200  115.3040 H       3  MOL3        0.0284
   1612 2H96       66.9290   67.0570  113.2430 H       3  MOL3        0.0385
   1613 3H96       67.9950   66.1910  114.1930 H       3  MOL3        0.0385
   1614 4H96       68.3110   71.3110  116.3180 H       3  MOL3        0.0276
   1615 5H96       69.7630   71.4040  115.5560 H       3  MOL3        0.0276
   1616 6H96       69.0720   73.1530  114.2240 H       3  MOL3        0.0266
   1617 7H96       69.0050   73.1990  115.9640 H       3  MOL3        0.0266
   1618 8H96       67.4510   74.3340  113.7780 H       3  MOL3        0.0270
   1619 9H96       68.1490   74.9400  115.2190 H       3  MOL3        0.0270
   1620 0H97       66.0540   75.7320  114.5680 H       3  MOL3        0.0377
   1621 1H97       66.5460   75.3620  116.1490 H       3  MOL3        0.0377
   1622 2H97       66.1150   63.4950  122.3050 H       3  MOL3        0.0421
   1623 3H97       62.5480   74.0450  103.1630 H       3  MOL3        0.0540
   1624 4H97       62.5620   72.6900  104.3870 H       3  MOL3        0.0540
   1625 5H97       60.4490   75.4470  103.0840 H       3  MOL3        0.0280
   1626 6H97       61.6550   76.2080  104.0220 H       3  MOL3        0.0280
   1627 7H97       60.0430   76.1250  104.7310 H       3  MOL3        0.0280
   1628 8H97       60.3190   72.2060  108.5620 H       3  MOL3        0.0735
   1629 9H97       60.9300   70.8640  107.5860 H       3  MOL3        0.0735
   1630 0H98       62.5220   72.3650  109.6370 H       3  MOL3        0.0765
   1631 1H98       60.6750   70.9210  110.0110 H       3  MOL3        0.0266
   1632 2H98       62.0710   70.2910  110.7830 H       3  MOL3        0.0266
   1633 3H98       61.4820   69.5430  109.2990 H       3  MOL3        0.0266
   1634 4H98       69.2690   66.6030  109.5770 H       3  MOL3        0.0421
   1635 5H98       70.4100   64.2170  108.7190 H       3  MOL3        0.0284
   1636 6H98       71.0190   65.6800  109.4960 H       3  MOL3        0.0284
   1637 7H98       69.6360   66.6180  107.2280 H       3  MOL3        0.0377
   1638 8H98       70.3610   65.0480  106.7390 H       3  MOL3        0.0377
   1639 9H98       68.2590   65.3410  107.0800 H       3  MOL3        0.0276
   1640 0H99       66.9530   65.0390  108.0790 H       3  MOL3        0.0276
   1641 1H99       65.9180   66.6870  107.8200 H       3  MOL3        0.0266
   1642 2H99       66.5900   66.4950  106.2680 H       3  MOL3        0.0266
   1643 3H99       65.1010   68.0340  106.7740 H       3  MOL3        0.0270
   1644 4H99       66.2610   68.3340  105.8150 H       3  MOL3        0.0270
   1645 5H99       65.1860   70.1890  105.9580 H       3  MOL3        0.0377
   1646 6H99       66.5900   70.6880  106.7470 H       3  MOL3        0.0377
   1647 7H99       71.8800   67.7650  104.8160 H       3  MOL3        0.0340
   1648 8H99       71.6160   69.0470  105.9060 H       3  MOL3        0.0340
   1649 9H99       70.2890   67.9940  105.5840 H       3  MOL3        0.0340
   1650  H10       61.4370   74.2620  127.0930 H       3  MOL3        0.0540
   1651  H10       61.7170   73.7970  125.3440 H       3  MOL3        0.0540
   1652  H10       58.5430   72.5440  127.6270 H       3  MOL3        0.0280
   1653  H10       57.8030   73.9350  126.8320 H       3  MOL3        0.0280
   1654  H10       59.1400   74.2120  127.9280 H       3  MOL3        0.0280
   1655  H10       59.0430   74.3040  122.8590 H       3  MOL3        0.0735
   1656  H10       60.5220   73.8590  122.1180 H       3  MOL3        0.0735
   1657  H10       57.8630   72.5100  122.3820 H       3  MOL3        0.0765
   1658  H10       57.8830   72.6300  119.7890 H       3  MOL3        0.0266
   1659  H10       59.3060   73.6440  119.9830 H       3  MOL3        0.0266
   1660  H10       57.7880   74.0750  120.7660 H       3  MOL3        0.0266
   1661  H10       62.0500   66.4570  118.9490 H       3  MOL3        0.0421
   1662  H10       63.1610   68.2330  118.7200 H       3  MOL3        0.0284
   1663  H10       63.7970   66.9670  119.6970 H       3  MOL3        0.0284
   1664  H10       65.8160   67.3170  119.3660 H       3  MOL3        0.0385
   1665  H10       65.2960   68.7370  119.3600 H       3  MOL3        0.0385
   1666  H10       60.6110   66.3820  117.4550 H       3  MOL3        0.0276
   1667  H10       61.3850   67.3330  116.3620 H       3  MOL3        0.0276
   1668  H10       60.3410   68.8850  117.3280 H       3  MOL3        0.0266
   1669  H10       61.4580   68.8870  118.6460 H       3  MOL3        0.0266
   1670  H10       58.8450   67.6590  119.2790 H       3  MOL3        0.0270
   1671  H10       58.8100   69.1890  118.5790 H       3  MOL3        0.0270
   1672  H10       59.6260   68.6060  121.4420 H       3  MOL3        0.0377
   1673  H10       58.3820   69.3330  120.7690 H       3  MOL3        0.0377
   1674  H10       50.4230   81.9390   99.4810 H       3  MOL3        0.0263
   1675  H10       51.2930   83.2950   98.8980 H       3  MOL3        0.0263
   1676  H10       51.5560   81.8090  101.4580 H       3  MOL3        0.0265
   1677  H10       52.4660   83.2740  101.2130 H       3  MOL3        0.0265
   1678  H10       53.8920   82.0350   99.5600 H       3  MOL3        0.0265
   1679  H10       53.0050   80.5630   99.8680 H       3  MOL3        0.0265
   1680  H10       53.6280   80.4090  102.0390 H       3  MOL3        0.0265
   1681  H10       53.7900   82.1340  102.2760 H       3  MOL3        0.0265
   1682  H10       56.1720   81.7450  101.1050 H       3  MOL3        0.0265
   1683  H10       55.8920   80.1260  101.6110 H       3  MOL3        0.0265
   1684  H10       55.1020   82.0610  103.7780 H       3  MOL3        0.0265
   1685  H10       56.6740   82.4670  103.1690 H       3  MOL3        0.0265
   1686  H10       57.6770   80.7600  104.1410 H       3  MOL3        0.0265
   1687  H10       56.5630   79.6030  103.4230 H       3  MOL3        0.0265
   1688  H10       55.0770   79.7320  105.3710 H       3  MOL3        0.0265
   1689  H10       56.0900   80.9340  106.1280 H       3  MOL3        0.0265
   1690  H10       57.8560   79.4110  106.3360 H       3  MOL3        0.0266
   1691  H10       57.4320   78.5680  104.8920 H       3  MOL3        0.0266
   1692  H10       56.0890   77.0330  105.9470 H       3  MOL3        0.0298
   1693  H10       56.1700   77.8220  107.5310 H       3  MOL3        0.0298
   1694  H10       58.6270   77.8330  107.2080 H       3  MOL3        0.0697
   1695  H10       58.4210   76.5020  106.0650 H       3  MOL3        0.0697
   1696  H10       50.5590   84.4900  101.1820 H       3  MOL3        0.0230
   1697  H10       49.4970   83.1030  101.4130 H       3  MOL3        0.0230
   1698  H10       49.2380   84.2030  100.0870 H       3  MOL3        0.0230
   1699  H10       58.4540   73.7530  108.8610 H       3  MOL3        0.0411
   1700  H10       55.6800   73.1240  109.3860 H       3  MOL3        0.0238
   1701  H10       56.6330   73.1680  110.8380 H       3  MOL3        0.0238
   1702  H10       57.1520   72.1720  109.5710 H       3  MOL3        0.0238
   1703  H10       57.2270   76.2010  110.1460 H       3  MOL3        0.0273
   1704  H10       58.8760   75.8360  109.8840 H       3  MOL3        0.0273
   1705  H10       59.9920   76.3960  111.1890 H       3  MOL3        0.0240
   1706  H10       60.8000   75.8230  112.6180 H       3  MOL3        0.0240
   1707  H10       60.0240   77.3870  112.6350 H       3  MOL3        0.0240
   1708  H10       74.9130   49.4650  129.4950 H       3  MOL3        0.2951
   1709  H10       75.0230   50.7600  130.7770 H       3  MOL3        0.0377
   1710  H10       75.7270   51.9770  129.6980 H       3  MOL3        0.0377
   1711  H10       77.7310   51.5040  131.7500 H       3  MOL3        0.0270
   1712  H10       76.1750   51.4980  132.5650 H       3  MOL3        0.0270
   1713  H10       75.5780   53.5450  131.1750 H       3  MOL3        0.0266
   1714  H10       77.0940   53.5350  130.6150 H       3  MOL3        0.0266
   1715  H10       77.5740   54.2820  133.2610 H       3  MOL3        0.0276
   1716  H10       75.8500   53.9270  133.2930 H       3  MOL3        0.0276
   1717  H10       75.9200   57.8530  131.1250 H       3  MOL3        0.0385
   1718  H10       75.3180   57.1660  129.6460 H       3  MOL3        0.0385
   1719  H10       75.7820   55.2500  130.3420 H       3  MOL3        0.0284
   1720  H10       74.3920   55.3000  131.4090 H       3  MOL3        0.0284
   1721  H10       72.8210   58.9840  120.1700 H       3  MOL3        0.0276
   1722  H10       74.4710   59.5650  120.0890 H       3  MOL3        0.0276
   1723  H10       71.7340   58.7720  118.2360 H       3  MOL3        0.0240
   1724  H10       72.7950   58.7700  116.8440 H       3  MOL3        0.0240
   1725  H10       71.6390   60.0860  117.0400 H       3  MOL3        0.0240
   1726  H10       73.9630   63.1580  119.6350 H       3  MOL3        0.0735
   1727  H10       74.6910   61.9630  120.6400 H       3  MOL3        0.0735
   1728  H10       74.9420   64.0810  121.5200 H       3  MOL3        0.0765
   1729  H10       73.7850   65.0530  123.1980 H       3  MOL3        0.0266
   1730  H10       72.4300   63.9340  123.1450 H       3  MOL3        0.0266
   1731  H10       72.5700   65.2150  121.9500 H       3  MOL3        0.0266
   1732  H10       70.0170   61.5070  126.3340 H       3  MOL3        0.0421
   1733  H10       70.0040   64.5410  126.9030 H       3  MOL3        0.0284
   1734  H10       68.8230   63.1920  127.4900 H       3  MOL3        0.0284
   1735  H10       68.5540   65.7120  126.5500 H       3  MOL3        0.0385
   1736  H10       68.0360   64.8720  127.8280 H       3  MOL3        0.0385
   1737  H10       72.4110   63.1310  126.2140 H       3  MOL3        0.0276
   1738  H10       71.3020   63.3760  124.9640 H       3  MOL3        0.0276
   1739  H10       71.7990   60.9580  124.1150 H       3  MOL3        0.0266
   1740  H10       71.9830   60.4660  125.6590 H       3  MOL3        0.0266
   1741  H10       73.8230   60.3910  123.9060 H       3  MOL3        0.0270
   1742  H10       74.0500   60.2480  125.5630 H       3  MOL3        0.0270
   1743  H10       75.8910   61.3960  125.0420 H       3  MOL3        0.0377
   1744  H10       74.8880   62.6640  125.7000 H       3  MOL3        0.0377
   1745  H10       77.1100   56.3490  132.1920 H       3  MOL3        0.0421
   1746  H10       58.1490   69.8770  128.7140 H       3  MOL3        0.0540
   1747  H10       56.4280   69.9200  129.1640 H       3  MOL3        0.0540
   1748  H10       55.5160   67.0550  129.7350 H       3  MOL3        0.0280
   1749  H10       56.4030   67.7920  131.1090 H       3  MOL3        0.0280
   1750  H11       56.9100   66.2460  130.5060 H       3  MOL3        0.0280
   1751  H11       61.3330   68.2630  127.9110 H       3  MOL3        0.0735
   1752  H11       61.0020   66.9100  128.9770 H       3  MOL3        0.0735
   1753  H11       60.9620   67.0330  126.0330 H       3  MOL3        0.0765
   1754  H11       62.8880   67.5940  126.5040 H       3  MOL3        0.0266
   1755  H11       63.3240   65.9020  126.4130 H       3  MOL3        0.0266
   1756  H11       63.1700   66.6850  127.9220 H       3  MOL3        0.0266
   1757  H11       64.1190   62.5110  124.2550 H       3  MOL3        0.0421
   1758  H11       65.2640   60.2690  125.5870 H       3  MOL3        0.0284
   1759  H11       66.1360   60.6400  124.1430 H       3  MOL3        0.0284
   1760  H11       63.2450   60.3340  123.8170 H       3  MOL3        0.0385
   1761  H11       64.3100   58.8880  124.1270 H       3  MOL3        0.0385
   1762  H11       64.1120   63.3460  126.6180 H       3  MOL3        0.0276
   1763  H11       64.2980   61.7760  127.0950 H       3  MOL3        0.0276
   1764  H11       62.8410   60.7150  125.9080 H       3  MOL3        0.0266
   1765  H11       62.4350   61.8380  124.7750 H       3  MOL3        0.0266
   1766  H11       61.1940   61.4270  127.5190 H       3  MOL3        0.0270
   1767  H11       60.5090   60.9060  126.0710 H       3  MOL3        0.0270
   1768  H11       59.1120   62.2310  127.3020 H       3  MOL3        0.0377
   1769  H11       59.1570   62.7410  125.6590 H       3  MOL3        0.0377
   1770  H11       79.7520   55.5790  132.1400 H       3  MOL3        0.0540
   1771  H11       78.7280   56.6870  131.0260 H       3  MOL3        0.0540
   1772  H11       78.7760   52.5390  130.2270 H       3  MOL3        0.0280
   1773  H11       79.1100   53.1610  131.8320 H       3  MOL3        0.0280
   1774  H11       80.3730   53.2190  130.6030 H       3  MOL3        0.0280
   1775  H11       77.9580   57.5410  127.3360 H       3  MOL3        0.0735
   1776  H11       77.8920   55.9220  127.0680 H       3  MOL3        0.0735
   1777  H11       75.6350   57.6880  127.9150 H       3  MOL3        0.0765
   1778  H11       76.0160   58.5360  126.0320 H       3  MOL3        0.0266
   1779  H11       74.9500   57.3310  125.4860 H       3  MOL3        0.0266
   1780  H11       76.7440   57.1400  125.2820 H       3  MOL3        0.0266
   1781  H11       70.4250   57.2100  132.9890 H       3  MOL3        0.0421
   1782  H11       70.3890   59.3580  132.8930 H       3  MOL3        0.0284
   1783  H11       71.9650   59.5110  132.2280 H       3  MOL3        0.0284
   1784  H11       70.0750   60.6670  131.3490 H       3  MOL3        0.0385
   1785  H11       69.6300   59.2150  130.3800 H       3  MOL3        0.0385
   1786  H11       71.3030   57.1740  130.2010 H       3  MOL3        0.0276
   1787  H11       69.7450   56.6500  130.5750 H       3  MOL3        0.0276
   1788  H11       70.5400   54.4860  130.8500 H       3  MOL3        0.0266
   1789  H11       71.9670   54.9910  131.7140 H       3  MOL3        0.0266
   1790  H11       71.4080   55.3670  128.8070 H       3  MOL3        0.0270
   1791  H11       71.5860   53.7530  129.2590 H       3  MOL3        0.0270
   1792  H11       72.5380   54.3890  127.5560 H       3  MOL3        0.0377
   1793  H11       73.8520   53.7830  128.3830 H       3  MOL3        0.0377
   1794  H11       85.6410   50.2970  113.9170 H       3  MOL3        0.0263
   1795  H11       85.4960   52.0080  113.5300 H       3  MOL3        0.0263
   1796  H11       83.2080   50.0540  113.1670 H       3  MOL3        0.0265
   1797  H11       83.2020   51.7970  112.8720 H       3  MOL3        0.0265
   1798  H11       84.3040   51.1470  115.5080 H       3  MOL3        0.0265
   1799  H11       82.7830   50.4930  115.4680 H       3  MOL3        0.0265
   1800  H11       81.9120   52.7200  114.5440 H       3  MOL3        0.0265
   1801  H11       83.4690   53.3620  114.5620 H       3  MOL3        0.0265
   1802  H11       83.2870   54.0300  116.8620 H       3  MOL3        0.0265
   1803  H11       82.7040   52.5610  117.3520 H       3  MOL3        0.0265
   1804  H11       80.6560   53.3100  115.8620 H       3  MOL3        0.0265
   1805  H11       81.5180   54.7930  115.6260 H       3  MOL3        0.0265
   1806  H11       79.6470   53.7170  117.6210 H       3  MOL3        0.0265
   1807  H11       79.5790   55.0640  116.5730 H       3  MOL3        0.0265
   1808  H11       79.4680   56.0820  118.4810 H       3  MOL3        0.0265
   1809  H11       81.1140   55.9300  118.8220 H       3  MOL3        0.0265
   1810  H11       79.5110   55.3130  120.5230 H       3  MOL3        0.0266
   1811  H11       80.2390   53.7860  119.9600 H       3  MOL3        0.0266
   1812  H11       77.5770   53.9960  120.2960 H       3  MOL3        0.0298
   1813  H11       78.3670   52.9720  119.1480 H       3  MOL3        0.0298
   1814  H11       76.5240   54.0660  118.1850 H       3  MOL3        0.0697
   1815  H11       77.8050   54.7470  117.3050 H       3  MOL3        0.0697
   1816  H11       86.6260   50.7100  111.8910 H       3  MOL3        0.0230
   1817  H11       85.3250   51.7900  111.3290 H       3  MOL3        0.0230
   1818  H11       85.0350   50.0210  111.4060 H       3  MOL3        0.0230
   1819  H11       75.8290   58.6310  117.9980 H       3  MOL3        0.0411
   1820  H11       75.4230   57.8900  120.8470 H       3  MOL3        0.0238
   1821  H11       76.5150   59.0370  120.1750 H       3  MOL3        0.0238
   1822  H11       77.0450   57.4180  120.2600 H       3  MOL3        0.0238
   1823  H11       73.8480   57.0230  119.6600 H       3  MOL3        0.0273
   1824  H11       73.5150   57.5240  118.0230 H       3  MOL3        0.0273
   1825  H11       75.1130   60.3420  117.4680 H       3  MOL3        0.0240
   1826  H11       74.7310   61.8450  118.3470 H       3  MOL3        0.0240
   1827  H11       73.9560   61.4820  116.8500 H       3  MOL3        0.0240
   1828  H11       64.8560   55.8300  150.7540 H       3  MOL3        0.2951
   1829  H11       66.6230   57.1560  151.0080 H       3  MOL3        0.0377
   1830  H11       66.8890   55.5870  151.7540 H       3  MOL3        0.0377
   1831  H11       67.5680   56.5330  153.8550 H       3  MOL3        0.0270
   1832  H11       67.4530   58.1210  153.4310 H       3  MOL3        0.0270
   1833  H11       69.1760   57.9420  151.8950 H       3  MOL3        0.0266
   1834  H11       69.4270   56.3450  152.8210 H       3  MOL3        0.0266
   1835  H11       71.1870   56.9740  153.4180 H       3  MOL3        0.0276
   1836  H11       71.0610   58.6340  152.8630 H       3  MOL3        0.0276
   1837  H11       74.5790   56.9930  149.4910 H       3  MOL3        0.0385
   1838  H11       74.0300   55.4280  150.1190 H       3  MOL3        0.0385
   1839  H11       71.7300   56.2420  150.0020 H       3  MOL3        0.0284
   1840  H11       72.1880   57.8630  149.6270 H       3  MOL3        0.0284
   1841  H11       65.6050   61.8140  138.2950 H       3  MOL3        0.0276
   1842  H11       65.9790   63.4170  138.7140 H       3  MOL3        0.0276
   1843  H11       62.6460   62.8470  140.6130 H       3  MOL3        0.0240
   1844  H11       63.5600   64.3030  140.3330 H       3  MOL3        0.0240
   1845  H11       63.8240   63.2720  141.8050 H       3  MOL3        0.0240
   1846  H11       64.7830   59.2110  141.9700 H       3  MOL3        0.0735
   1847  H11       65.8330   58.3670  140.8300 H       3  MOL3        0.0735
   1848  H11       67.0120   60.3900  142.6450 H       3  MOL3        0.0765
   1849  H11       67.5210   57.9010  143.7000 H       3  MOL3        0.0266
   1850  H12       66.1840   57.4450  142.6500 H       3  MOL3        0.0266
   1851  H12       65.9060   58.5830  143.9600 H       3  MOL3        0.0266
   1852  H12       70.4540   55.7070  139.1040 H       3  MOL3        0.0421
   1853  H12       69.4180   53.1070  138.9930 H       3  MOL3        0.0284
   1854  H12       70.2030   53.0650  140.5700 H       3  MOL3        0.0284
   1855  H12       71.7840   54.4540  138.4900 H       3  MOL3        0.0385
   1856  H12       71.2540   52.8660  137.9280 H       3  MOL3        0.0385
   1857  H12       67.8830   54.4090  139.6420 H       3  MOL3        0.0276
   1858  H12       68.4680   55.2890  138.2420 H       3  MOL3        0.0276
   1859  H12       67.6960   56.5350  140.9690 H       3  MOL3        0.0266
   1860  H12       66.6910   56.4410  139.5940 H       3  MOL3        0.0266
   1861  H12       67.6900   58.6260  139.2420 H       3  MOL3        0.0270
   1862  H12       68.7630   57.5910  138.3210 H       3  MOL3        0.0270
   1863  H12       69.8520   59.3090  139.8320 H       3  MOL3        0.0377
   1864  H12       70.4720   57.6860  140.1290 H       3  MOL3        0.0377
   1865  H12       72.2670   56.0330  151.9560 H       3  MOL3        0.0412
   1866  H12       75.5790   56.2580  153.1130 H       3  MOL3        0.0341
   1867  H12       75.3380   56.3270  151.3560 H       3  MOL3        0.0341
   1868  H12       74.3280   55.2260  152.3620 H       3  MOL3        0.0341
   1869  H12       68.0480   56.4070  132.8130 H       3  MOL3        0.0540
   1870  H12       67.8580   55.5970  131.1720 H       3  MOL3        0.0540
   1871  H12       66.3100   57.0170  129.5090 H       3  MOL3        0.0280
   1872  H12       67.8390   57.8680  129.2080 H       3  MOL3        0.0280
   1873  H12       66.3830   58.7800  129.6570 H       3  MOL3        0.0280
   1874  H12       68.2940   60.6860  133.4480 H       3  MOL3        0.0735
   1875  H12       66.8200   60.4010  134.3220 H       3  MOL3        0.0735
   1876  H12       69.2790   60.9140  135.0510 H       3  MOL3        0.0765
   1877  H12       69.1450   60.6790  137.4870 H       3  MOL3        0.0266
   1878  H12       68.0420   59.4200  137.3250 H       3  MOL3        0.0266
   1879  H12       67.5970   61.1370  136.8910 H       3  MOL3        0.0266
   1880  H12       74.6690   54.4290  138.6130 H       3  MOL3        0.0421
   1881  H12       76.3480   53.1680  137.0330 H       3  MOL3        0.0284
   1882  H12       76.5590   54.6680  137.8350 H       3  MOL3        0.0284
   1883  H12       76.3720   54.2500  134.9720 H       3  MOL3        0.0385
   1884  H12       77.7540   54.5240  135.9460 H       3  MOL3        0.0385
   1885  H12       74.2620   56.0150  136.2990 H       3  MOL3        0.0276
   1886  H12       73.3940   56.0830  137.7740 H       3  MOL3        0.0276
   1887  H12       71.9340   54.1200  136.4350 H       3  MOL3        0.0266
   1888  H12       72.5360   55.2140  135.1960 H       3  MOL3        0.0266
   1889  H12       71.4390   56.4580  137.7000 H       3  MOL3        0.0270
   1890  H12       70.2710   55.7940  136.5730 H       3  MOL3        0.0270
   1891  H12       71.3440   57.3130  134.7640 H       3  MOL3        0.0377
   1892  H12       72.4680   57.8020  136.0420 H       3  MOL3        0.0377
   1893  H12       64.7870   59.9380  152.7260 H       3  MOL3        0.0540
   1894  H12       64.9120   58.6970  151.3980 H       3  MOL3        0.0540
   1895  H12       61.7310   61.3540  151.2730 H       3  MOL3        0.0280
   1896  H12       63.2120   62.3360  151.1670 H       3  MOL3        0.0280
   1897  H12       62.8460   61.5000  152.6410 H       3  MOL3        0.0280
   1898  H12       63.8240   59.2210  147.4370 H       3  MOL3        0.0735
   1899  H12       65.5220   59.3370  147.9830 H       3  MOL3        0.0735
   1900  H12       64.2650   56.8200  148.2250 H       3  MOL3        0.0765
   1901  H12       64.4250   55.9370  145.8940 H       3  MOL3        0.0266
   1902  H12       64.9300   57.4680  145.2390 H       3  MOL3        0.0266
   1903  H12       63.3200   57.3450  145.8580 H       3  MOL3        0.0266
   1904  H12       72.6560   56.1480  145.5440 H       3  MOL3        0.0421
   1905  H12       73.0380   53.9310  143.6260 H       3  MOL3        0.0284
   1906  H12       74.2060   55.2390  143.6700 H       3  MOL3        0.0284
   1907  H12       72.0020   56.7330  143.3890 H       3  MOL3        0.0385
   1908  H12       71.1570   55.2260  143.5000 H       3  MOL3        0.0385
   1909  H12       71.5340   53.7630  146.4540 H       3  MOL3        0.0276
   1910  H12       71.0310   53.9370  144.8460 H       3  MOL3        0.0276
   1911  H12       70.7550   56.5470  145.4840 H       3  MOL3        0.0266
   1912  H12       70.6300   55.8640  147.1020 H       3  MOL3        0.0266
   1913  H12       68.8010   54.4440  145.7200 H       3  MOL3        0.0270
   1914  H12       68.7730   55.9740  144.8030 H       3  MOL3        0.0270
   1915  H12       68.6240   56.2010  147.7900 H       3  MOL3        0.0377
   1916  H12       67.4160   55.0930  147.2230 H       3  MOL3        0.0377
   1917  H12       56.1420   73.7210  135.8310 H       3  MOL3        0.0263
   1918  H12       55.8110   72.1100  135.2260 H       3  MOL3        0.0263
   1919  H12       57.9360   73.9230  134.3250 H       3  MOL3        0.0265
   1920  H12       57.1900   72.8690  133.1130 H       3  MOL3        0.0265
   1921  H12       57.5730   70.8840  134.4770 H       3  MOL3        0.0265
   1922  H12       57.8540   71.8360  135.9050 H       3  MOL3        0.0265
   1923  H12       59.8050   72.7770  135.1730 H       3  MOL3        0.0265
   1924  H12       59.5350   72.0720  133.5250 H       3  MOL3        0.0265
   1925  H12       59.9090   69.8590  134.3620 H       3  MOL3        0.0265
   1926  H12       60.3670   70.4750  135.9110 H       3  MOL3        0.0265
   1927  H12       62.2120   71.8490  134.8940 H       3  MOL3        0.0265
   1928  H12       61.4820   71.7630  133.3430 H       3  MOL3        0.0265
   1929  H12       63.6110   70.3970  134.1270 H       3  MOL3        0.0265
   1930  H12       62.6750   70.1410  132.6830 H       3  MOL3        0.0265
   1931  H12       61.4320   68.3640  134.5840 H       3  MOL3        0.0265
   1932  H12       63.1420   68.3530  134.9310 H       3  MOL3        0.0265
   1933  H12       63.4210   68.1390  132.3720 H       3  MOL3        0.0266
   1934  H12       61.8790   67.2040  132.7250 H       3  MOL3        0.0266
   1935  H12       63.3060   66.4730  134.6970 H       3  MOL3        0.0298
   1936  H12       64.7230   66.8980  133.7100 H       3  MOL3        0.0298
   1937  H12       64.5290   64.8480  132.7730 H       3  MOL3        0.0697
   1938  H12       62.7890   64.9250  132.4510 H       3  MOL3        0.0697
   1939  H12       54.5340   74.6560  134.5320 H       3  MOL3        0.0230
   1940  H12       53.9400   73.1760  135.1990 H       3  MOL3        0.0230
   1941  H12       54.3150   73.2650  133.4580 H       3  MOL3        0.0230
   1942  H12       62.7080   62.5950  136.3440 H       3  MOL3        0.0411
   1943  H12       61.5520   64.5190  137.4670 H       3  MOL3        0.0238
   1944  H12       61.2510   64.3260  135.7790 H       3  MOL3        0.0238
   1945  H12       62.2840   65.5590  136.1820 H       3  MOL3        0.0238
   1946  H12       64.4690   64.5460  137.9390 H       3  MOL3        0.0273
   1947  H12       65.2630   63.4620  136.7900 H       3  MOL3        0.0273
   1948  H12       66.7130   62.1450  140.4060 H       3  MOL3        0.0240
   1949  H12       65.8630   62.5740  141.8930 H       3  MOL3        0.0240
   1950  H13       66.1620   63.8320  140.6580 H       3  MOL3        0.0240
   1951  O65      136.3490   84.1330  138.0880 O.2     4  MOL4       -0.2510
   1952  O65      136.0450   85.1740  139.9770 O.3     4  MOL4       -0.4806
   1953  C65      136.0270   84.0310  139.2420 C.2     4  MOL4        0.3047
   1954  C65      135.4930   82.8740  140.2040 C.3     4  MOL4        0.0448
   1955  C65      135.7700   81.3150  140.4260 C.3     4  MOL4       -0.0430
   1956  C65      136.0140   80.4310  141.7910 C.3     4  MOL4       -0.0515
   1957  C65      136.5630   78.9030  141.4910 C.3     4  MOL4       -0.0403
   1958  S65      141.4310   78.6700  144.0300 S.3     4  MOL4       -0.0928
   1959  C65      139.8260   77.4940  143.5100 C.3     4  MOL4        0.0050
   1960  C66      138.1810   77.4910  143.2910 C.3     4  MOL4       -0.0305
   1961  C66      139.1000   91.2070  148.8400 C.2     4  MOL4        0.3129
   1962  C66      139.8980   91.7360  150.1280 C.3     4  MOL4        0.0622
   1963  C66      141.4140   91.5260  150.2950 C.3     4  MOL4       -0.0370
   1964  C66      139.9020   93.2370  150.2010 C.3     4  MOL4       -0.0497
   1965  O66      139.3250   91.4760  147.6940 O.2     4  MOL4       -0.2502
   1966  O66      138.0740   90.3700  149.2400 O.3     4  MOL4       -0.4605
   1967  C66      137.0340   89.6390  148.4680 C.3     4  MOL4        0.1290
   1968  C66      136.6420   88.1480  148.7500 C.3     4  MOL4        0.1341
   1969  C66      137.7460   87.3730  148.1480 C.3     4  MOL4       -0.0244
   1970  C67      136.4580   80.2380  151.0110 C.3     4  MOL4        0.0162
   1971  C67      137.8370   79.4290  150.6580 C.3     4  MOL4       -0.0305
   1972  C67      139.3320   78.9550  151.0460 C.3     4  MOL4        0.0050
   1973  S67      139.9060   78.1260  152.6370 S.3     4  MOL4       -0.0928
   1974  C67      135.4460   81.4370  151.6420 C.3     4  MOL4       -0.0403
   1975  C67      134.8470   82.8200  152.2800 C.3     4  MOL4       -0.0515
   1976  C67      134.7840   84.4360  152.4060 C.3     4  MOL4       -0.0429
   1977  C67      134.8570   85.8610  151.6510 C.3     4  MOL4        0.0450
   1978  C67      135.0060   86.7410  150.3180 C.2     4  MOL4        0.3074
   1979  O67      136.2090   87.2710  149.9170 O.3     4  MOL4       -0.4582
   1980  O68      134.0040   87.0030  149.7400 O.2     4  MOL4       -0.2508
   1981  C68      137.5800   77.5410  141.8930 C.3     4  MOL4        0.0162
   1982  C68      144.2400   89.5180  155.4860 C.2     4  MOL4        0.3344
   1983  C68      144.4890   89.6420  156.9910 C.2     4  MOL4        0.0264
   1984  C68      144.7930   88.5900  157.7650 C.2     4  MOL4       -0.0890
   1985  C68      144.3380   90.9250  157.7650 C.3     4  MOL4       -0.0335
   1986  O68      144.0070   90.5150  154.8520 O.2     4  MOL4       -0.2453
   1987  O68      144.2740   88.2890  154.8760 O.3     4  MOL4       -0.4577
   1988  C68      143.8070   87.5940  153.6400 C.3     4  MOL4        0.1293
   1989  C68      142.6830   86.4660  153.4050 C.3     4  MOL4        0.1341
   1990  C69      143.1300   86.0610  151.9700 C.3     4  MOL4       -0.0244
   1991  C69      142.3730   77.7320  154.3150 C.3     4  MOL4        0.0162
   1992  C69      142.1200   76.5420  155.2380 C.3     4  MOL4       -0.0313
   1993  C69      142.5510   77.0150  156.6030 C.3     4  MOL4       -0.0056
   1994  S69      141.3130   76.9240  157.8740 S.3     4  MOL4       -0.1641
   1995  C69      143.7050   78.6620  154.7440 C.3     4  MOL4       -0.0403
   1996  C69      143.9880   80.2540  155.2560 C.3     4  MOL4       -0.0515
   1997  C69      143.7570   81.8560  155.7700 C.3     4  MOL4       -0.0429
   1998  C69      143.0250   83.3710  156.1320 C.3     4  MOL4        0.0450
   1999  C69      141.9180   84.5790  155.6510 C.2     4  MOL4        0.3074
   2000  O70      142.0530   85.5410  154.5340 O.3     4  MOL4       -0.4582
   2001  O70      140.9270   84.7260  156.2830 O.2     4  MOL4       -0.2508
   2002  C70      141.9240   78.1000  159.1490 C.3     4  MOL4       -0.0181
   2003  S70      141.8670   77.3850  152.5600 S.3     4  MOL4       -0.0897
   2004  C70      133.5800   87.9250  140.0140 C.2     4  MOL4        0.3344
   2005  C70      132.2240   87.9500  139.4980 C.2     4  MOL4        0.0264
   2006  C70      131.2410   87.4290  140.2600 C.2     4  MOL4       -0.0890
   2007  C70      132.0040   88.6480  138.2040 C.3     4  MOL4       -0.0335
   2008  O70      134.5470   88.2890  139.3850 O.2     4  MOL4       -0.2453
   2009  O70      133.7530   87.5240  141.2870 O.3     4  MOL4       -0.4577
   2010  C71      134.4490   88.3970  142.1450 C.3     4  MOL4        0.1293
   2011  C71      135.9280   88.3970  141.9890 C.3     4  MOL4        0.1341
   2012  C71      136.5480   89.2690  143.0730 C.3     4  MOL4       -0.0244
   2013  S71      141.3980   80.7240  144.5520 S.3     4  MOL4       -0.0897
   2014  C71      139.7460   81.7540  144.5770 C.3     4  MOL4        0.0162
   2015  C71      138.1950   81.5290  145.0270 C.3     4  MOL4       -0.0305
   2016  C71      137.0840   80.9410  146.0560 C.3     4  MOL4        0.0050
   2017  S71      136.3090   80.3690  147.6460 S.3     4  MOL4       -0.0928
   2018  C71      140.3640   83.1440  144.6440 C.3     4  MOL4       -0.0403
   2019  C71      139.5660   84.3780  144.1740 C.3     4  MOL4       -0.0515
   2020  C72      139.4900   85.2380  142.8810 C.3     4  MOL4       -0.0429
   2021  C72      138.2480   85.6290  142.0290 C.3     4  MOL4        0.0450
   2022  C72      136.9920   86.2800  142.5780 C.2     4  MOL4        0.3074
   2023  O72      136.6120   87.1820  141.6530 O.3     4  MOL4       -0.4582
   2024  O72      136.4690   86.1240  143.6320 O.2     4  MOL4       -0.2508
   2025  S72      135.5910   79.7750  149.4080 S.3     4  MOL4       -0.0897
   2026  C72      148.2190  103.2230  158.7170 C.3     4  MOL4       -0.0559
   2027  C72      147.2990  102.0580  158.4460 C.3     4  MOL4       -0.0533
   2028  C72      147.3850  100.6590  159.0650 C.3     4  MOL4       -0.0531
   2029  C72      146.2720   99.8610  158.3750 C.3     4  MOL4       -0.0531
   2030  C73      145.4280   98.7270  158.9580 C.3     4  MOL4       -0.0531
   2031  C73      144.0550   98.6890  158.2280 C.3     4  MOL4       -0.0531
   2032  C73      143.8320   97.3550  157.5340 C.3     4  MOL4       -0.0531
   2033  C73      143.4740   97.2730  156.0520 C.3     4  MOL4       -0.0530
   2034  C73      143.3620   95.7810  155.7920 C.3     4  MOL4       -0.0500
   2035  C73      143.7830   95.0220  154.5620 C.3     4  MOL4       -0.0185
   2036  C73      143.2630   93.6360  154.7280 C.3     4  MOL4        0.0925
   2037  C73      147.6920  104.4230  157.9130 C.3     4  MOL4       -0.0653
   2038  C73      143.5780   91.6660  151.7280 C.3     4  MOL4        0.0537
   2039  C73      144.1420   92.4750  152.8650 C.2     4  MOL4        0.3099
   2040  O74      143.0770   93.0400  153.4620 O.3     4  MOL4       -0.4644
   2041  O74      145.2500   92.6110  153.3220 O.2     4  MOL4       -0.2505
   2042  C74      144.3210   91.3470  150.4180 C.3     4  MOL4       -0.0523
   2043  C74      142.0960   92.1220  151.5340 C.3     4  MOL4       -0.0394
   2044  C74      139.1750   91.3190  151.3660 C.3     4  MOL4       -0.0497
   2045  O74      133.6330   58.5350  137.7520 O.2     4  MOL4       -0.2510
   2046  O74      135.3490   59.2430  136.4660 O.3     4  MOL4       -0.4806
   2047  C74      134.0600   59.2530  136.9020 C.2     4  MOL4        0.3047
   2048  C74      133.3260   60.3870  136.2300 C.3     4  MOL4        0.0448
   2049  C74      131.8240   60.2430  135.9020 C.3     4  MOL4       -0.0430
   2050  C75      131.1330   61.4400  136.5130 C.3     4  MOL4       -0.0515
   2051  C75      129.8000   61.9830  136.0280 C.3     4  MOL4       -0.0403
   2052  S75      130.7500   66.8260  137.1200 S.3     4  MOL4       -0.0928
   2053  C75      130.2090   65.3040  137.8520 C.3     4  MOL4        0.0050
   2054  C75      130.5980   64.1090  137.0540 C.3     4  MOL4       -0.0305
   2055  C75      136.7710   71.2220  146.6710 C.2     4  MOL4        0.3129
   2056  C75      137.2420   69.9440  147.3900 C.3     4  MOL4        0.0622
   2057  C75      136.9820   68.7860  146.4510 C.3     4  MOL4       -0.0370
   2058  C75      138.7650   70.0570  147.3300 C.3     4  MOL4       -0.0497
   2059  O75      137.5690   72.0910  146.4620 O.2     4  MOL4       -0.2502
   2060  O76      135.4660   71.2450  146.1690 O.3     4  MOL4       -0.4605
   2061  C76      134.2960   71.1190  146.9980 C.3     4  MOL4        0.1290
   2062  C76      132.9000   71.5280  146.5120 C.3     4  MOL4        0.1341
   2063  C76      132.3660   72.7910  145.8480 C.3     4  MOL4       -0.0244
   2064  C76      132.3260   72.6210  140.5230 C.3     4  MOL4        0.0162
   2065  C76      132.1430   74.2920  140.3720 C.3     4  MOL4       -0.0305
   2066  C76      132.2290   75.9270  140.1020 C.3     4  MOL4        0.0050
   2067  S76      133.3760   77.2840  139.5860 S.3     4  MOL4       -0.0928
   2068  C76      132.2160   72.1170  141.9570 C.3     4  MOL4       -0.0403
   2069  C76      133.0170   70.7890  142.2700 C.3     4  MOL4       -0.0515
   2070  C77      132.5190   69.5700  143.1150 C.3     4  MOL4       -0.0429
   2071  C77      131.3020   69.4900  144.0580 C.3     4  MOL4        0.0450
   2072  C77      131.3410   70.1210  145.3610 C.2     4  MOL4        0.3074
   2073  O77      132.5870   70.5930  145.4850 O.3     4  MOL4       -0.4582
   2074  O77      130.4510   70.2300  146.1730 O.2     4  MOL4       -0.2508
   2075  S77      128.5400   64.3350  135.2790 S.3     4  MOL4       -0.0897
   2076  C77      129.3880   63.3520  136.5690 C.3     4  MOL4        0.0162
   2077  C77      134.2620   83.9620  134.3180 C.2     4  MOL4        0.3344
   2078  C77      134.3420   85.2650  133.7200 C.2     4  MOL4        0.0264
   2079  C77      133.9400   86.3380  134.4170 C.2     4  MOL4       -0.0890
   2080  C78      134.8320   85.2480  132.3290 C.3     4  MOL4       -0.0335
   2081  O78      134.2140   82.9470  133.6580 O.2     4  MOL4       -0.2453
   2082  O78      134.2720   83.9310  135.6620 O.3     4  MOL4       -0.4577
   2083  C78      133.8790   82.7250  136.2520 C.3     4  MOL4        0.1293
   2084  C78      134.8760   81.9160  136.9660 C.3     4  MOL4        0.1341
   2085  C78      133.9400   80.9490  137.8300 C.3     4  MOL4       -0.0244
   2086  C78      136.4950   76.4780  138.7870 C.3     4  MOL4        0.0162
   2087  C78      137.3500   75.1850  138.7130 C.3     4  MOL4       -0.0305
   2088  C78      138.8370   75.2730  138.5460 C.3     4  MOL4        0.0050
   2089  S78      139.5970   75.1400  140.1330 S.3     4  MOL4       -0.0928
   2090  C79      136.1220   77.0060  137.4290 C.3     4  MOL4       -0.0403
   2091  C79      137.4560   77.5550  136.7610 C.3     4  MOL4       -0.0515
   2092  C79      137.8330   78.5350  135.5030 C.3     4  MOL4       -0.0429
   2093  C79      137.8770   80.1560  135.1420 C.3     4  MOL4        0.0450
   2094  C79      136.7790   81.3420  135.1470 C.2     4  MOL4        0.3074
   2095  O79      136.2230   81.5840  136.3850 O.3     4  MOL4       -0.4582
   2096  O79      136.4630   81.8670  134.1190 O.2     4  MOL4       -0.2508
   2097  S79      138.8780   76.9730  140.6790 S.3     4  MOL4       -0.0897
   2098  S79      135.2720   76.8150  140.1640 S.3     4  MOL4       -0.0897
   2099  C79      130.6960   62.0420  139.6270 C.2     4  MOL4        0.3344
   2100  C80      129.7840   61.0330  139.0730 C.2     4  MOL4        0.0264
   2101  C80      128.5510   61.4850  138.9870 C.2     4  MOL4       -0.0890
   2102  C80      130.1340   59.6800  138.5080 C.3     4  MOL4       -0.0335
   2103  O80      131.8870   61.8810  139.5900 O.2     4  MOL4       -0.2453
   2104  O80      130.2320   63.2020  140.2180 O.3     4  MOL4       -0.4577
   2105  C80      131.1810   63.6880  141.1600 C.3     4  MOL4        0.1293
   2106  C80      132.0490   64.7870  140.7390 C.3     4  MOL4        0.1341
   2107  C80      132.6680   65.4120  142.0080 C.3     4  MOL4       -0.0244
   2108  S80      130.2600   66.7110  135.1320 S.3     4  MOL4       -0.0897
   2109  C80      131.3190   68.1280  134.7440 C.3     4  MOL4        0.0162
   2110  C81      130.5580   69.3300  135.3740 C.3     4  MOL4       -0.0305
   2111  C81      131.1880   70.3560  136.2990 C.3     4  MOL4        0.0050
   2112  S81      130.9370   69.9060  138.0740 S.3     4  MOL4       -0.0928
   2113  C81      132.7390   67.7950  135.2100 C.3     4  MOL4       -0.0403
   2114  C81      133.2830   66.3460  135.0820 C.3     4  MOL4       -0.0515
   2115  C81      134.0680   65.7220  136.3020 C.3     4  MOL4       -0.0429
   2116  C81      134.1510   64.9670  137.6680 C.3     4  MOL4        0.0450
   2117  C81      133.5520   65.3250  139.0040 C.2     4  MOL4        0.3074
   2118  O81      132.7440   64.3830  139.5300 O.3     4  MOL4       -0.4582
   2119  O81      133.9110   66.2540  139.6600 O.2     4  MOL4       -0.2508
   2120  S82      131.5140   71.0110  139.7610 S.3     4  MOL4       -0.0897
   2121  C82      139.3790   55.6790  154.1100 C.3     4  MOL4       -0.0559
   2122  C82      140.0440   56.6410  153.1640 C.3     4  MOL4       -0.0533
   2123  C82      139.1020   56.8800  151.9910 C.3     4  MOL4       -0.0531
   2124  C82      138.4930   58.2760  152.1190 C.3     4  MOL4       -0.0531
   2125  C82      137.4010   58.7550  151.1260 C.3     4  MOL4       -0.0531
   2126  C82      137.7860   60.1800  150.8690 C.3     4  MOL4       -0.0531
   2127  C82      137.4560   61.2050  149.8120 C.3     4  MOL4       -0.0531
   2128  C82      136.2040   61.6620  149.1300 C.3     4  MOL4       -0.0530
   2129  C82      136.2580   61.4390  147.6430 C.3     4  MOL4       -0.0500
   2130  C83      137.5160   61.9700  146.9520 C.3     4  MOL4       -0.0185
   2131  C83      138.2680   63.1170  147.6150 C.3     4  MOL4        0.0925
   2132  C83      140.1380   55.4080  155.3530 C.3     4  MOL4       -0.0653
   2133  C83      137.2560   66.5880  147.5630 C.3     4  MOL4        0.0537
   2134  C83      138.1710   65.4620  147.9030 C.2     4  MOL4        0.3099
   2135  O83      137.5230   64.3230  147.5830 O.3     4  MOL4       -0.4644
   2136  O83      139.2880   65.5190  148.3710 O.2     4  MOL4       -0.2505
   2137  C83      135.9330   66.2170  146.8910 C.3     4  MOL4       -0.0523
   2138  C83      137.8940   67.5640  146.6040 C.3     4  MOL4       -0.0394
   2139  C83      136.6860   69.8760  148.8100 C.3     4  MOL4       -0.0497
   2140  O84      121.3420   70.1390  114.9800 O.2     4  MOL4       -0.2510
   2141  O84      123.3930   69.8130  115.8390 O.3     4  MOL4       -0.4806
   2142  C84      122.0430   69.6030  115.7760 C.2     4  MOL4        0.3047
   2143  C84      121.6090   68.6480  116.8850 C.3     4  MOL4        0.0448
   2144  C84      120.0870   68.2440  116.8600 C.3     4  MOL4       -0.0430
   2145  C84      119.2310   67.3500  117.9110 C.3     4  MOL4       -0.0516
   2146  C84      118.4130   66.4360  118.9840 C.3     4  MOL4       -0.0411
   2147  S84      121.1940   64.2420  122.9770 S.3     4  MOL4       -0.0928
   2148  C84      119.5440   63.9120  122.2640 C.3     4  MOL4        0.0049
   2149  C84      119.4190   65.1750  121.3770 C.3     4  MOL4       -0.0313
   2150  C85      127.5560   74.4890  126.1640 C.2     4  MOL4        0.3129
   2151  C85      126.9130   75.3880  127.1900 C.3     4  MOL4        0.0622
   2152  C85      127.4530   75.4130  128.6480 C.3     4  MOL4       -0.0370
   2153  C85      126.5930   76.6380  126.4590 C.3     4  MOL4       -0.0497
   2154  O85      127.9620   74.8150  125.0750 O.2     4  MOL4       -0.2502
   2155  O85      127.4510   73.2040  126.6050 O.3     4  MOL4       -0.4605
   2156  C85      127.3420   72.2540  125.5600 C.3     4  MOL4        0.1290
   2157  C85      126.1160   71.4330  125.5440 C.3     4  MOL4        0.1341
   2158  C85      126.2520   70.6840  124.2360 C.3     4  MOL4       -0.0244
   2159  C85      128.5180   66.4730  127.3560 C.3     4  MOL4        0.0162
   2160  C86      129.2590   65.1650  127.0950 C.3     4  MOL4       -0.0305
   2161  C86      129.1450   64.2770  128.3160 C.3     4  MOL4        0.0050
   2162  S86      128.3150   62.7080  128.2420 S.3     4  MOL4       -0.0928
   2163  C86      129.4100   67.6220  127.0270 C.3     4  MOL4       -0.0403
   2164  C86      128.7450   68.9530  126.7200 C.3     4  MOL4       -0.0515
   2165  C86      128.0150   69.4880  127.9540 C.3     4  MOL4       -0.0429
   2166  C86      126.5720   69.0000  128.0960 C.3     4  MOL4        0.0450
   2167  C86      125.8800   69.3360  126.8280 C.2     4  MOL4        0.3074
   2168  O86      126.2410   70.6200  126.6950 O.3     4  MOL4       -0.4582
   2169  O86      125.1800   68.6860  126.0930 O.2     4  MOL4       -0.2508
   2170  S87      116.8970   64.5090  120.3180 S.3     4  MOL4       -0.1607
   2171  C87      118.5190   65.2850  120.1060 C.3     4  MOL4        0.0058
   2172  C87      117.2890   62.8170  120.6830 C.3     4  MOL4       -0.0178
   2173  C87      132.5240   71.6150  133.3310 C.2     4  MOL4        0.3344
   2174  C87      133.7440   70.8390  133.5750 C.2     4  MOL4        0.0264
   2175  C87      133.8690   69.6580  132.9570 C.2     4  MOL4       -0.0890
   2176  C87      134.7750   71.3780  134.5290 C.3     4  MOL4       -0.0335
   2177  O87      132.3510   72.6480  133.9390 O.2     4  MOL4       -0.2453
   2178  O87      131.5520   71.1660  132.4600 O.3     4  MOL4       -0.4577
   2179  C87      130.3620   71.9670  132.4550 C.3     4  MOL4        0.1293
   2180  C88      129.1020   71.2390  132.0290 C.3     4  MOL4        0.1341
   2181  C88      128.2130   71.6320  130.8050 C.3     4  MOL4       -0.0244
   2182  C88      127.8800   62.9540  131.1720 C.3     4  MOL4        0.0162
   2183  C88      127.4390   61.9690  132.2940 C.3     4  MOL4       -0.0305
   2184  C88      127.5030   62.0490  133.8060 C.3     4  MOL4        0.0050
   2185  S88      126.8220   63.3940  134.8070 S.3     4  MOL4       -0.0928
   2186  C88      128.0690   64.4270  131.5870 C.3     4  MOL4       -0.0403
   2187  C88      129.3760   65.1720  131.3460 C.3     4  MOL4       -0.0515
   2188  C88      129.0920   66.6000  130.9020 C.3     4  MOL4       -0.0429
   2189  C88      128.8150   67.4910  132.0840 C.3     4  MOL4        0.0450
   2190  C89      128.4800   68.8650  131.5780 C.2     4  MOL4        0.3074
   2191  O89      129.2920   69.7970  132.1660 O.3     4  MOL4       -0.4582
   2192  O89      127.6010   69.0620  130.7850 O.2     4  MOL4       -0.2508
   2193  S89      129.1060   62.2290  130.0400 S.3     4  MOL4       -0.0897
   2194  C89      123.1590   73.2930  117.9100 C.2     4  MOL4        0.3344
   2195  C89      121.8620   73.4810  117.2750 C.2     4  MOL4        0.0264
   2196  C89      121.2600   72.3330  116.9930 C.2     4  MOL4       -0.0890
   2197  C89      121.2590   74.8130  116.9880 C.3     4  MOL4       -0.0335
   2198  O89      123.9330   74.2080  118.0870 O.2     4  MOL4       -0.2453
   2199  O89      123.4700   72.0180  118.3450 O.3     4  MOL4       -0.4577
   2200  C90      124.0310   71.9300  119.6550 C.3     4  MOL4        0.1293
   2201  C90      125.0150   70.8150  119.6690 C.3     4  MOL4        0.1341
   2202  C90      126.3710   71.0250  120.3970 C.3     4  MOL4       -0.0244
   2203  S90      122.2120   62.7340  123.9530 S.3     4  MOL4       -0.0897
   2204  C90      123.3730   64.0010  124.5410 C.3     4  MOL4        0.0162
   2205  C90      124.1770   63.7810  125.8200 C.3     4  MOL4       -0.0305
   2206  C90      124.8320   65.1100  126.1190 C.3     4  MOL4        0.0050
   2207  S90      126.0580   65.0820  127.4220 S.3     4  MOL4       -0.0928
   2208  C90      124.2540   64.4760  123.3960 C.3     4  MOL4       -0.0403
   2209  C90      123.8860   65.9250  123.0430 C.3     4  MOL4       -0.0515
   2210  C91      124.9300   66.8390  122.4270 C.3     4  MOL4       -0.0429
   2211  C91      124.4660   67.6750  121.2360 C.3     4  MOL4        0.0450
   2212  C91      124.4750   69.1800  121.2150 C.2     4  MOL4        0.3074
   2213  O91      124.4960   69.5030  119.9020 O.3     4  MOL4       -0.4582
   2214  O91      124.4840   70.0080  122.0810 O.2     4  MOL4       -0.2508
   2215  S91      127.0310   66.5340  126.4090 S.3     4  MOL4       -0.0897
   2216  C91      128.7970   89.5170  130.6680 C.3     4  MOL4       -0.0559
   2217  C91      128.6210   88.6270  131.8790 C.3     4  MOL4       -0.0533
   2218  C91      128.5230   87.2170  131.2890 C.3     4  MOL4       -0.0531
   2219  C91      127.8460   86.3260  132.2580 C.3     4  MOL4       -0.0531
   2220  C92      127.8760   84.8440  132.0760 C.3     4  MOL4       -0.0531
   2221  C92      127.3170   84.3080  133.3940 C.3     4  MOL4       -0.0531
   2222  C92      127.7090   82.9100  133.8450 C.3     4  MOL4       -0.0531
   2223  C92      128.3910   81.9360  132.8800 C.3     4  MOL4       -0.0530
   2224  C92      129.4090   81.0480  133.5330 C.3     4  MOL4       -0.0500
   2225  C92      129.1890   79.6230  133.1380 C.3     4  MOL4       -0.0185
   2226  C92      130.3610   78.7030  132.9330 C.3     4  MOL4        0.0925
   2227  C92      129.5680   90.7990  130.5020 C.3     4  MOL4       -0.0653
   2228  C92      129.4010   77.4670  129.6550 C.3     4  MOL4        0.0537
   2229  C92      130.0040   77.1980  130.9940 C.2     4  MOL4        0.3099
   2230  O93      130.2100   78.3910  131.5580 O.3     4  MOL4       -0.4644
   2231  O93      130.2720   76.1270  131.4650 O.2     4  MOL4       -0.2505
   2232  C93      129.4110   78.9930  129.3720 C.3     4  MOL4       -0.0523
   2233  C93      128.0770   76.5820  129.4830 C.3     4  MOL4       -0.0394
   2234  C93      125.5940   74.6830  127.3950 C.3     4  MOL4       -0.0497
   2235 5H93      135.6480   85.0290  140.8370 H       4  MOL4        0.2951
   2236 6H93      134.4640   82.9370  139.8800 H       4  MOL4        0.0377
   2237 7H93      135.5620   83.4290  141.1130 H       4  MOL4        0.0377
   2238 8H93      136.5120   81.0490  139.7100 H       4  MOL4        0.0270
   2239 9H93      134.8620   80.8030  140.0660 H       4  MOL4        0.0270
   2240 0H94      134.9630   80.2060  142.0530 H       4  MOL4        0.0266
   2241 1H94      136.3010   80.8960  142.7260 H       4  MOL4        0.0266
   2242 2H94      136.3000   78.8490  140.4410 H       4  MOL4        0.0276
   2243 3H94      135.7390   78.4550  142.0840 H       4  MOL4        0.0276
   2244 4H94      140.0030   76.7290  144.2540 H       4  MOL4        0.0385
   2245 5H94      140.2000   77.0480  142.6140 H       4  MOL4        0.0385
   2246 6H94      137.4160   78.0800  143.8280 H       4  MOL4        0.0284
   2247 7H94      137.9700   76.4870  143.6310 H       4  MOL4        0.0284
   2248 8H94      141.8060   91.9150  149.3660 H       4  MOL4        0.0276
   2249 9H94      141.8390   90.5420  150.3790 H       4  MOL4        0.0276
   2250 0H95      139.3300   93.6950  149.4390 H       4  MOL4        0.0240
   2251 1H95      140.8610   93.7190  150.1050 H       4  MOL4        0.0240
   2252 2H95      139.5160   93.5670  151.1560 H       4  MOL4        0.0240
   2253 3H95      136.1080   90.2210  148.4300 H       4  MOL4        0.0735
   2254 4H95      137.3610   89.6050  147.4110 H       4  MOL4        0.0735
   2255 5H95      135.8960   88.0210  147.9980 H       4  MOL4        0.0765
   2256 6H95      137.3800   86.3770  148.2910 H       4  MOL4        0.0266
   2257 7H95      138.7300   87.3530  148.5860 H       4  MOL4        0.0266
   2258 8H95      137.8620   87.7420  147.1390 H       4  MOL4        0.0266
   2259 9H95      135.8670   79.4240  151.4800 H       4  MOL4        0.0421
   2260 0H96      138.0950   79.7490  149.6270 H       4  MOL4        0.0284
   2261 1H96      137.3240   78.4760  150.4720 H       4  MOL4        0.0284
   2262 2H96      140.0860   79.6860  150.7380 H       4  MOL4        0.0385
   2263 3H96      139.4050   78.2460  150.2340 H       4  MOL4        0.0385
   2264 4H96      135.0130   81.6150  150.6800 H       4  MOL4        0.0276
   2265 5H96      134.6680   80.7810  152.0510 H       4  MOL4        0.0276
   2266 6H96      134.8940   82.6540  153.3750 H       4  MOL4        0.0266
   2267 7H96      133.8040   82.5740  152.0180 H       4  MOL4        0.0266
   2268 8H96      135.3760   84.6500  153.3220 H       4  MOL4        0.0270
   2269 9H96      133.7520   84.4980  152.8010 H       4  MOL4        0.0270
   2270 0H97      134.8350   86.5440  152.5160 H       4  MOL4        0.0377
   2271 1H97      133.7820   85.7980  151.4150 H       4  MOL4        0.0377
   2272 2H97      136.7970   76.7790  142.0090 H       4  MOL4        0.0421
   2273 3H97      144.8600   88.6880  158.8480 H       4  MOL4        0.0540
   2274 4H97      144.8420   87.5690  157.4060 H       4  MOL4        0.0540
   2275 5H97      145.2400   91.1350  158.3490 H       4  MOL4        0.0280
   2276 6H97      143.5770   90.8030  158.5350 H       4  MOL4        0.0280
   2277 7H97      144.0350   91.7560  157.1250 H       4  MOL4        0.0280
   2278 8H97      143.6710   88.3340  152.8520 H       4  MOL4        0.0735
   2279 9H97      144.7170   87.0250  153.4150 H       4  MOL4        0.0735
   2280 0H98      141.7280   86.8780  153.2230 H       4  MOL4        0.0765
   2281 1H98      143.2880   87.0160  151.4390 H       4  MOL4        0.0266
   2282 2H98      142.4110   85.5470  151.3300 H       4  MOL4        0.0266
   2283 3H98      144.0840   85.5250  151.8880 H       4  MOL4        0.0266
   2284 4H98      141.4110   78.1180  154.5990 H       4  MOL4        0.0421
   2285 5H98      142.6880   75.6740  154.9550 H       4  MOL4        0.0284
   2286 6H98      141.0480   76.2740  155.2200 H       4  MOL4        0.0284
   2287 7H98      142.6910   78.0980  156.6020 H       4  MOL4        0.0377
   2288 8H98      143.4970   76.5000  156.7650 H       4  MOL4        0.0377
   2289 9H98      144.2370   78.0920  155.5260 H       4  MOL4        0.0276
   2290 0H99      144.4720   78.6530  153.9680 H       4  MOL4        0.0276
   2291 1H99      144.2600   80.5840  154.2500 H       4  MOL4        0.0266
   2292 2H99      144.9910   80.1350  155.7200 H       4  MOL4        0.0266
   2293 3H99      144.5990   82.2200  155.1380 H       4  MOL4        0.0270
   2294 4H99      144.4180   81.7520  156.5880 H       4  MOL4        0.0270
   2295 5H99      143.8570   83.8260  156.6170 H       4  MOL4        0.0377
   2296 6H99      142.3290   83.1810  156.9220 H       4  MOL4        0.0377
   2297 7H99      142.3750   77.6600  160.0490 H       4  MOL4        0.0340
   2298 8H99      141.1050   78.6820  159.5540 H       4  MOL4        0.0340
   2299 9H99      142.6080   78.8240  158.7200 H       4  MOL4        0.0340
   2300  H10      130.2070   87.4100  139.9380 H       4  MOL4        0.0540
   2301  H10      131.4250   87.0390  141.2550 H       4  MOL4        0.0540
   2302  H10      132.3790   88.0340  137.3870 H       4  MOL4        0.0280
   2303  H10      132.4930   89.6270  138.1370 H       4  MOL4        0.0280
   2304  H10      130.9330   88.8360  138.0890 H       4  MOL4        0.0280
   2305  H10      134.1360   89.4310  141.9750 H       4  MOL4        0.0735
   2306  H10      134.0660   88.1800  143.1430 H       4  MOL4        0.0735
   2307  H10      136.0750   88.9420  141.0600 H       4  MOL4        0.0765
   2308  H10      137.6360   89.2540  143.1100 H       4  MOL4        0.0266
   2309  H10      136.1840   89.0300  144.0760 H       4  MOL4        0.0266
   2310  H10      136.2560   90.2930  142.8500 H       4  MOL4        0.0266
   2311  H10      139.4180   81.9900  143.5980 H       4  MOL4        0.0421
   2312  H10      137.9720   82.5760  145.0150 H       4  MOL4        0.0284
   2313  H10      137.7270   81.1280  144.1170 H       4  MOL4        0.0284
   2314  H10      136.6630   80.0650  145.5470 H       4  MOL4        0.0385
   2315  H10      136.1460   81.4590  145.8150 H       4  MOL4        0.0385
   2316  H10      141.1720   83.0360  143.9770 H       4  MOL4        0.0276
   2317  H10      140.9150   83.3170  145.5740 H       4  MOL4        0.0276
   2318  H10      139.9880   85.0720  144.8720 H       4  MOL4        0.0266
   2319  H10      138.5580   84.2050  144.4360 H       4  MOL4        0.0266
   2320  H10      140.2420   84.9920  142.1380 H       4  MOL4        0.0270
   2321  H10      139.8420   86.2070  143.2320 H       4  MOL4        0.0270
   2322  H10      137.9250   84.9700  141.2320 H       4  MOL4        0.0377
   2323  H10      138.6050   86.4010  141.3790 H       4  MOL4        0.0377
   2324  H10      149.2100  102.9630  158.3690 H       4  MOL4        0.0263
   2325  H10      148.3510  103.4330  159.7760 H       4  MOL4        0.0263
   2326  H10      147.4290  101.9280  157.3850 H       4  MOL4        0.0265
   2327  H10      146.2750  102.4210  158.5930 H       4  MOL4        0.0265
   2328  H10      147.2570  100.7030  160.1380 H       4  MOL4        0.0265
   2329  H10      148.3620  100.1840  158.8910 H       4  MOL4        0.0265
   2330  H10      146.7450   99.4560  157.4850 H       4  MOL4        0.0265
   2331  H10      145.5390  100.5960  158.0320 H       4  MOL4        0.0265
   2332  H10      145.2280   98.8220  160.0200 H       4  MOL4        0.0265
   2333  H10      145.9680   97.7690  158.8790 H       4  MOL4        0.0265
   2334  H10      143.9300   99.5270  157.5270 H       4  MOL4        0.0265
   2335  H10      143.2500   98.8290  158.9610 H       4  MOL4        0.0265
   2336  H10      143.0610   96.8110  158.0920 H       4  MOL4        0.0265
   2337  H10      144.7600   96.7700  157.6350 H       4  MOL4        0.0265
   2338  H10      144.2480   97.6820  155.4150 H       4  MOL4        0.0265
   2339  H10      142.5530   97.8210  155.8070 H       4  MOL4        0.0265
   2340  H10      142.3370   95.4970  155.9900 H       4  MOL4        0.0266
   2341  H10      143.9500   95.2910  156.5660 H       4  MOL4        0.0266
   2342  H10      144.8630   94.9630  154.4850 H       4  MOL4        0.0298
   2343  H10      143.3750   95.3460  153.6030 H       4  MOL4        0.0298
   2344  H10      142.2630   93.7380  155.1270 H       4  MOL4        0.0697
   2345  H10      143.8440   93.0000  155.4010 H       4  MOL4        0.0697
   2346  H10      146.6270  104.5960  158.0870 H       4  MOL4        0.0230
   2347  H10      147.8270  104.2650  156.8400 H       4  MOL4        0.0230
   2348  H10      148.1850  105.3690  158.1390 H       4  MOL4        0.0230
   2349  H10      143.6060   90.6960  152.2370 H       4  MOL4        0.0411
   2350  H10      145.1060   92.0420  150.1620 H       4  MOL4        0.0238
   2351  H10      143.6560   91.3040  149.5550 H       4  MOL4        0.0238
   2352  H10      144.7410   90.3370  150.4240 H       4  MOL4        0.0238
   2353  H10      142.0710   93.2040  151.5300 H       4  MOL4        0.0273
   2354  H10      141.5630   91.8550  152.4470 H       4  MOL4        0.0273
   2355  H10      139.8270   91.4010  152.2300 H       4  MOL4        0.0240
   2356  H10      138.8170   90.3080  151.3340 H       4  MOL4        0.0240
   2357  H10      138.3400   91.9780  151.5050 H       4  MOL4        0.0240
   2358  H10      135.4560   59.8910  135.7680 H       4  MOL4        0.2951
   2359  H10      133.8590   60.6550  135.3230 H       4  MOL4        0.0377
   2360  H10      133.4810   61.1780  136.9740 H       4  MOL4        0.0377
   2361  H10      131.3820   59.3010  136.2540 H       4  MOL4        0.0270
   2362  H10      131.6990   60.2640  134.8200 H       4  MOL4        0.0270
   2363  H10      131.7450   62.2990  136.3470 H       4  MOL4        0.0266
   2364  H10      131.2960   61.3280  137.5590 H       4  MOL4        0.0266
   2365  H10      128.9480   61.3160  136.0500 H       4  MOL4        0.0276
   2366  H10      130.0460   62.2050  135.0020 H       4  MOL4        0.0276
   2367  H10      129.1710   65.2500  138.1770 H       4  MOL4        0.0385
   2368  H10      130.8120   65.2810  138.7470 H       4  MOL4        0.0385
   2369  H10      131.2020   63.4950  137.7330 H       4  MOL4        0.0284
   2370  H10      131.2420   64.3660  136.2110 H       4  MOL4        0.0284
   2371  H10      137.1100   69.1570  145.4290 H       4  MOL4        0.0276
   2372  H10      135.9540   68.4880  146.5620 H       4  MOL4        0.0276
   2373  H10      139.0310   69.9060  146.2760 H       4  MOL4        0.0240
   2374  H10      139.3460   69.3210  147.8950 H       4  MOL4        0.0240
   2375  H10      139.0980   71.0470  147.6390 H       4  MOL4        0.0240
   2376  H10      134.4900   71.5190  147.9950 H       4  MOL4        0.0735
   2377  H10      134.1400   70.0580  147.1510 H       4  MOL4        0.0735
   2378  H10      132.2580   71.3710  147.3960 H       4  MOL4        0.0765
   2379  H10      131.2680   72.7080  145.8710 H       4  MOL4        0.0266
   2380  H10      132.6530   72.7970  144.7910 H       4  MOL4        0.0266
   2381  H10      132.6130   73.7560  146.2630 H       4  MOL4        0.0266
   2382  H10      133.2890   72.3330  140.1810 H       4  MOL4        0.0421
   2383  H10      131.2290   74.5250  140.8720 H       4  MOL4        0.0284
   2384  H10      132.2470   74.2690  139.3040 H       4  MOL4        0.0284
   2385  H10      131.5670   76.3920  140.8330 H       4  MOL4        0.0385
   2386  H10      131.5080   76.0040  139.2670 H       4  MOL4        0.0385
   2387  H10      131.1750   71.9380  142.1190 H       4  MOL4        0.0276
   2388  H10      132.4180   72.9750  142.5990 H       4  MOL4        0.0276
   2389  H10      134.0500   70.9370  142.6040 H       4  MOL4        0.0266
   2390  H10      133.2530   70.3110  141.3260 H       4  MOL4        0.0266
   2391  H10      133.4230   69.1830  143.5990 H       4  MOL4        0.0270
   2392  H10      132.3350   68.7740  142.3880 H       4  MOL4        0.0270
   2393  H10      131.0370   68.4350  144.1710 H       4  MOL4        0.0377
   2394  H10      130.4420   69.9810  143.6200 H       4  MOL4        0.0377
   2395  H10      128.7080   63.2470  137.4070 H       4  MOL4        0.0421
   2396  H10      133.4020   86.2320  135.3480 H       4  MOL4        0.0540
   2397  H10      134.0110   87.3760  134.1270 H       4  MOL4        0.0540
   2398  H10      135.7480   85.8230  132.1430 H       4  MOL4        0.0280
   2399  H10      133.9930   85.6470  131.8210 H       4  MOL4        0.0280
   2400  H11      134.9720   84.2230  131.9680 H       4  MOL4        0.0280
   2401  H11      133.1200   82.9850  137.0070 H       4  MOL4        0.0735
   2402  H11      133.3850   82.1120  135.5090 H       4  MOL4        0.0735
   2403  H11      135.1980   82.4980  137.8000 H       4  MOL4        0.0765
   2404  H11      133.5580   81.5780  138.6440 H       4  MOL4        0.0266
   2405  H11      134.3340   80.0480  138.3050 H       4  MOL4        0.0266
   2406  H11      133.0220   80.5900  137.3570 H       4  MOL4        0.0266
   2407  H11      137.1820   77.2120  139.1070 H       4  MOL4        0.0421
   2408  H11      136.9910   74.6720  137.8340 H       4  MOL4        0.0284
   2409  H11      137.2300   74.4930  139.5350 H       4  MOL4        0.0284
   2410  H11      139.1490   76.2340  138.1770 H       4  MOL4        0.0385
   2411  H11      139.1990   74.4260  137.9470 H       4  MOL4        0.0385
   2412  H11      135.2230   77.6170  137.5970 H       4  MOL4        0.0276
   2413  H11      135.7050   76.2920  136.7380 H       4  MOL4        0.0276
   2414  H11      137.8280   76.5940  136.5010 H       4  MOL4        0.0266
   2415  H11      138.1300   77.7970  137.5840 H       4  MOL4        0.0266
   2416  H11      137.2880   78.0750  134.6770 H       4  MOL4        0.0270
   2417  H11      138.8620   78.2810  135.2410 H       4  MOL4        0.0270
   2418  H11      138.0830   80.0810  134.0680 H       4  MOL4        0.0377
   2419  H11      138.8100   80.5770  135.5470 H       4  MOL4        0.0377
   2420  H11      127.7660   60.9150  138.5250 H       4  MOL4        0.0540
   2421  H11      128.3920   62.5190  139.2680 H       4  MOL4        0.0540
   2422  H11      131.2050   59.5030  138.3530 H       4  MOL4        0.0280
   2423  H11      129.6630   59.5910  137.5240 H       4  MOL4        0.0280
   2424  H11      129.7340   58.9000  139.1450 H       4  MOL4        0.0280
   2425  H11      130.6540   64.0010  142.0300 H       4  MOL4        0.0735
   2426  H11      131.7700   62.8770  141.5950 H       4  MOL4        0.0735
   2427  H11      131.4440   65.6120  140.4380 H       4  MOL4        0.0765
   2428  H11      131.9540   66.1530  142.4020 H       4  MOL4        0.0266
   2429  H11      133.5450   66.0290  141.8200 H       4  MOL4        0.0266
   2430  H11      132.8250   64.7050  142.8330 H       4  MOL4        0.0266
   2431  H11      131.2830   68.2850  133.6600 H       4  MOL4        0.0421
   2432  H11      130.1550   69.9020  134.5200 H       4  MOL4        0.0284
   2433  H11      129.6490   69.0200  135.9040 H       4  MOL4        0.0284
   2434  H11      130.5610   71.2180  136.0360 H       4  MOL4        0.0385
   2435  H11      132.2280   70.5340  136.0080 H       4  MOL4        0.0385
   2436  H11      132.5980   67.9260  136.2460 H       4  MOL4        0.0276
   2437  H11      133.4870   68.5490  134.9560 H       4  MOL4        0.0276
   2438  H11      134.1060   66.3970  134.3450 H       4  MOL4        0.0266
   2439  H11      132.5150   65.7350  134.6070 H       4  MOL4        0.0266
   2440  H11      134.4390   66.6510  136.6960 H       4  MOL4        0.0270
   2441  H11      134.9660   65.3000  135.8360 H       4  MOL4        0.0270
   2442  H11      135.1770   65.2870  137.8770 H       4  MOL4        0.0377
   2443  H11      134.2960   63.8850  137.6930 H       4  MOL4        0.0377
   2444  H11      139.1150   54.7400  153.6160 H       4  MOL4        0.0263
   2445  H11      138.4740   56.1330  154.4800 H       4  MOL4        0.0263
   2446  H11      141.0220   56.2590  152.8440 H       4  MOL4        0.0265
   2447  H11      140.2310   57.5740  153.7200 H       4  MOL4        0.0265
   2448  H11      138.3440   56.1170  152.0190 H       4  MOL4        0.0265
   2449  H11      139.5480   56.6570  151.0180 H       4  MOL4        0.0265
   2450  H11      139.3430   58.9660  152.1130 H       4  MOL4        0.0265
   2451  H11      138.1400   58.3950  153.1450 H       4  MOL4        0.0265
   2452  H11      136.4080   58.7990  151.5300 H       4  MOL4        0.0265
   2453  H11      137.2350   58.0630  150.3020 H       4  MOL4        0.0265
   2454  H11      138.8470   60.1220  150.6700 H       4  MOL4        0.0265
   2455  H11      137.7030   60.6590  151.8530 H       4  MOL4        0.0265
   2456  H11      138.0450   60.9380  148.9470 H       4  MOL4        0.0265
   2457  H11      137.9860   62.0710  150.2230 H       4  MOL4        0.0265
   2458  H11      136.2660   62.7220  149.0790 H       4  MOL4        0.0265
   2459  H11      135.2590   61.4760  149.6110 H       4  MOL4        0.0265
   2460  H11      135.3850   61.9400  147.2420 H       4  MOL4        0.0266
   2461  H11      136.2120   60.3780  147.4790 H       4  MOL4        0.0266
   2462  H11      137.3010   62.2850  145.9220 H       4  MOL4        0.0298
   2463  H11      138.1810   61.1060  146.8320 H       4  MOL4        0.0298
   2464  H11      139.1570   63.2340  147.0290 H       4  MOL4        0.0697
   2465  H11      138.6470   62.9580  148.6240 H       4  MOL4        0.0697
   2466  H11      139.6380   54.5700  155.8390 H       4  MOL4        0.0230
   2467  H11      140.0790   56.2880  156.0040 H       4  MOL4        0.0230
   2468  H11      141.1800   55.1720  155.1310 H       4  MOL4        0.0230
   2469  H11      137.0770   67.0810  148.5240 H       4  MOL4        0.0411
   2470  H11      135.9100   66.5480  145.8440 H       4  MOL4        0.0238
   2471  H11      135.1080   66.7230  147.3550 H       4  MOL4        0.0238
   2472  H11      135.6820   65.1670  146.9570 H       4  MOL4        0.0238
   2473  H11      137.9870   67.0710  145.6180 H       4  MOL4        0.0273
   2474  H11      138.9180   67.8130  146.8930 H       4  MOL4        0.0273
   2475  H11      136.8320   68.8700  149.2020 H       4  MOL4        0.0240
   2476  H11      135.6340   70.1540  148.8920 H       4  MOL4        0.0240
   2477  H11      137.1980   70.5420  149.5070 H       4  MOL4        0.0240
   2478  H11      123.8010   69.3790  116.5910 H       4  MOL4        0.2951
   2479  H11      121.9530   69.1490  117.8060 H       4  MOL4        0.0377
   2480  H11      122.2220   67.7460  116.7820 H       4  MOL4        0.0377
   2481  H11      120.0000   67.7970  115.8710 H       4  MOL4        0.0270
   2482  H11      119.4360   69.0830  116.7320 H       4  MOL4        0.0270
   2483  H11      119.5900   67.9380  118.7380 H       4  MOL4        0.0266
   2484  H11      119.7680   66.5080  117.5570 H       4  MOL4        0.0266
   2485  H11      118.0990   65.7390  118.2430 H       4  MOL4        0.0276
   2486  H11      117.5840   67.0970  119.2270 H       4  MOL4        0.0276
   2487  H11      118.7620   63.8390  123.0260 H       4  MOL4        0.0385
   2488  H11      119.5380   62.9960  121.6730 H       4  MOL4        0.0385
   2489  H11      120.3800   65.1470  120.8790 H       4  MOL4        0.0284
   2490  H11      119.4620   66.0690  122.0120 H       4  MOL4        0.0284
   2491  H11      127.9090   74.4240  128.8090 H       4  MOL4        0.0276
   2492  H11      126.5430   75.3160  129.2800 H       4  MOL4        0.0276
   2493  H11      127.4400   76.9540  125.8820 H       4  MOL4        0.0240
   2494  H11      126.3110   77.4420  127.1150 H       4  MOL4        0.0240
   2495  H11      125.8200   76.3710  125.7330 H       4  MOL4        0.0240
   2496  H11      127.4890   72.7200  124.5810 H       4  MOL4        0.0735
   2497  H11      128.1250   71.4980  125.6850 H       4  MOL4        0.0735
   2498  H11      125.2110   72.0350  125.6560 H       4  MOL4        0.0765
   2499  H11      125.6730   69.7630  124.1740 H       4  MOL4        0.0266
   2500  H12      127.3060   70.4180  124.1200 H       4  MOL4        0.0266
   2501  H12      125.9860   71.3240  123.3940 H       4  MOL4        0.0266
   2502  H12      128.2490   66.6010  128.4060 H       4  MOL4        0.0421
   2503  H12      130.3330   65.3890  126.9820 H       4  MOL4        0.0284
   2504  H12      128.9420   64.6880  126.1580 H       4  MOL4        0.0284
   2505  H12      128.6330   64.8430  129.0960 H       4  MOL4        0.0385
   2506  H12      130.1630   64.0790  128.6600 H       4  MOL4        0.0385
   2507  H12      130.0100   67.3170  126.1760 H       4  MOL4        0.0276
   2508  H12      130.0870   67.7020  127.8860 H       4  MOL4        0.0276
   2509  H12      128.0750   68.8880  125.8540 H       4  MOL4        0.0266
   2510  H12      129.5320   69.6180  126.3580 H       4  MOL4        0.0266
   2511  H12      127.9930   70.5910  127.9640 H       4  MOL4        0.0270
   2512  H12      128.5850   69.1930  128.8400 H       4  MOL4        0.0270
   2513  H12      126.0830   69.5920  128.8840 H       4  MOL4        0.0377
   2514  H12      126.4780   67.9540  128.3680 H       4  MOL4        0.0377
   2515  H12      118.9770   64.4550  119.5740 H       4  MOL4        0.0412
   2516  H12      116.3540   62.2970  120.4810 H       4  MOL4        0.0341
   2517  H12      117.5540   62.6700  121.7340 H       4  MOL4        0.0341
   2518  H12      118.0760   62.4430  120.0250 H       4  MOL4        0.0341
   2519  H12      133.1130   69.3020  132.2660 H       4  MOL4        0.0540
   2520  H12      134.7070   68.9820  133.1260 H       4  MOL4        0.0540
   2521  H12      135.7840   71.2170  134.1380 H       4  MOL4        0.0280
   2522  H12      134.6810   70.8480  135.4800 H       4  MOL4        0.0280
   2523  H12      134.6600   72.4540  134.7230 H       4  MOL4        0.0280
   2524  H12      130.1740   72.2330  133.5070 H       4  MOL4        0.0735
   2525  H12      130.5670   72.9310  131.9650 H       4  MOL4        0.0735
   2526  H12      128.5070   71.5950  132.8680 H       4  MOL4        0.0765
   2527  H12      127.1710   71.2900  130.8360 H       4  MOL4        0.0266
   2528  H12      128.5700   71.1150  129.9190 H       4  MOL4        0.0266
   2529  H12      128.1160   72.7190  130.6660 H       4  MOL4        0.0266
   2530  H12      127.0320   62.8810  130.4840 H       4  MOL4        0.0421
   2531  H12      127.8440   60.9720  132.0960 H       4  MOL4        0.0284
   2532  H12      126.3810   61.8630  132.1500 H       4  MOL4        0.0284
   2533  H12      128.5250   61.9400  134.1000 H       4  MOL4        0.0385
   2534  H12      127.0190   61.1280  134.1680 H       4  MOL4        0.0385
   2535  H12      127.8180   64.5340  132.6490 H       4  MOL4        0.0276
   2536  H12      127.3110   65.0300  131.0900 H       4  MOL4        0.0276
   2537  H12      130.0390   64.6830  130.6300 H       4  MOL4        0.0266
   2538  H12      129.8860   65.2000  132.3050 H       4  MOL4        0.0266
   2539  H12      128.1880   66.6230  130.2770 H       4  MOL4        0.0270
   2540  H12      129.8970   67.0190  130.2920 H       4  MOL4        0.0270
   2541  H12      129.6140   67.5840  132.8070 H       4  MOL4        0.0377
   2542  H12      127.9320   67.0760  132.5890 H       4  MOL4        0.0377
   2543  H12      120.2800   72.2720  116.5770 H       4  MOL4        0.0540
   2544  H12      121.7510   71.3950  117.1980 H       4  MOL4        0.0540
   2545  H12      122.0310   75.4950  116.6450 H       4  MOL4        0.0280
   2546  H12      120.7560   75.2370  117.8600 H       4  MOL4        0.0280
   2547  H12      120.4900   74.7310  116.2240 H       4  MOL4        0.0280
   2548  H12      124.5400   72.8710  119.8810 H       4  MOL4        0.0735
   2549  H12      123.2240   71.7690  120.3820 H       4  MOL4        0.0735
   2550  H12      125.1580   70.7340  118.6030 H       4  MOL4        0.0765
   2551  H12      127.0420   70.1890  120.1490 H       4  MOL4        0.0266
   2552  H12      126.3250   71.0390  121.4880 H       4  MOL4        0.0266
   2553  H12      126.8620   71.9710  120.1330 H       4  MOL4        0.0266
   2554  H12      122.7570   64.8630  124.7530 H       4  MOL4        0.0421
   2555  H12      125.0130   63.1490  125.5960 H       4  MOL4        0.0284
   2556  H12      123.6270   63.3270  126.6570 H       4  MOL4        0.0284
   2557  H12      124.1380   65.9300  126.2930 H       4  MOL4        0.0385
   2558  H12      125.3660   65.3750  125.2060 H       4  MOL4        0.0385
   2559  H12      124.1220   63.7750  122.5790 H       4  MOL4        0.0276
   2560  H12      125.3080   64.3860  123.6220 H       4  MOL4        0.0276
   2561  H12      123.5830   66.4370  123.9660 H       4  MOL4        0.0266
   2562  H12      123.0120   65.8690  122.4010 H       4  MOL4        0.0266
   2563  H12      125.6590   66.1740  121.9860 H       4  MOL4        0.0270
   2564  H12      125.3930   67.4040  123.2510 H       4  MOL4        0.0270
   2565  H12      123.4570   67.3980  120.9590 H       4  MOL4        0.0377
   2566  H12      125.0830   67.4430  120.3570 H       4  MOL4        0.0377
   2567  H12      127.8120   89.7610  130.2720 H       4  MOL4        0.0263
   2568  H12      129.2770   88.8500  129.9630 H       4  MOL4        0.0263
   2569  H12      127.6940   88.8450  132.4350 H       4  MOL4        0.0265
   2570  H12      129.4500   88.6790  132.5870 H       4  MOL4        0.0265
   2571  H12      129.5010   86.8350  130.9920 H       4  MOL4        0.0265
   2572  H12      127.9130   87.2190  130.3950 H       4  MOL4        0.0265
   2573  H12      126.8070   86.6710  132.3200 H       4  MOL4        0.0265
   2574  H12      128.3880   86.4840  133.1850 H       4  MOL4        0.0265
   2575  H12      128.9050   84.5260  131.9040 H       4  MOL4        0.0265
   2576  H12      127.3350   84.5320  131.1790 H       4  MOL4        0.0265
   2577  H12      126.2220   84.4010  133.4310 H       4  MOL4        0.0265
   2578  H12      127.6390   84.9680  134.2150 H       4  MOL4        0.0265
   2579  H12      126.7780   82.4640  134.2010 H       4  MOL4        0.0265
   2580  H12      128.3330   83.0340  134.7320 H       4  MOL4        0.0265
   2581  H12      128.7940   82.3830  131.9610 H       4  MOL4        0.0265
   2582  H12      127.6700   81.1990  132.5740 H       4  MOL4        0.0265
   2583  H12      129.2580   81.0870  134.6070 H       4  MOL4        0.0266
   2584  H12      130.3830   81.3990  133.1880 H       4  MOL4        0.0266
   2585  H12      128.7870   79.7250  132.1350 H       4  MOL4        0.0298
   2586  H12      128.4170   79.1790  133.7860 H       4  MOL4        0.0298
   2587  H12      130.2660   77.8840  133.6390 H       4  MOL4        0.0697
   2588  H12      131.3530   79.1350  133.0160 H       4  MOL4        0.0697
   2589  H12      128.9640   91.6450  130.7910 H       4  MOL4        0.0230
   2590  H12      129.6920   90.8920  129.4170 H       4  MOL4        0.0230
   2591  H12      130.5420   90.8650  130.9830 H       4  MOL4        0.0230
   2592  H12      130.2470   77.1170  129.1050 H       4  MOL4        0.0411
   2593  H12      129.0710   79.2070  128.3640 H       4  MOL4        0.0238
   2594  H12      130.4070   79.4200  129.4350 H       4  MOL4        0.0238
   2595  H12      128.9080   79.6000  130.1210 H       4  MOL4        0.0238
   2596  H12      127.2030   77.2300  129.5190 H       4  MOL4        0.0273
   2597  H12      128.1150   76.0040  130.4080 H       4  MOL4        0.0273
   2598  H12      125.7980   73.7320  127.8810 H       4  MOL4        0.0240
   2599  H12      125.0710   74.4820  126.4580 H       4  MOL4        0.0240
   2600  H13      124.9840   75.3220  128.0340 H       4  MOL4        0.0240
   2601  O65       75.2760   82.5850  124.9230 O.2     5  MOL5       -0.2510
   2602  O65       74.7360   82.4920  127.0310 O.3     5  MOL5       -0.4806
   2603  C65       75.4940   82.0680  125.9860 C.2     5  MOL5        0.3047
   2604  C65       76.4410   80.9100  126.5450 C.3     5  MOL5        0.0448
   2605  C65       77.9330   80.3940  126.2940 C.3     5  MOL5       -0.0430
   2606  C65       79.1350   79.9750  127.3340 C.3     5  MOL5       -0.0515
   2607  C65       80.6030   79.7960  126.5990 C.3     5  MOL5       -0.0403
   2608  S65       83.8260   83.5150  129.0450 S.3     5  MOL5       -0.0928
   2609  C65       83.8890   81.6580  128.1650 C.3     5  MOL5        0.0050
   2610  C66       83.0290   80.2580  127.9230 C.3     5  MOL5       -0.0305
   2611  C66       73.4430   86.4940  137.3560 C.2     5  MOL5        0.3129
   2612  C66       73.7190   87.2230  138.7580 C.3     5  MOL5        0.0622
   2613  C66       74.6790   88.4200  138.8840 C.3     5  MOL5       -0.0370
   2614  C66       72.4880   87.9100  139.2790 C.3     5  MOL5       -0.0497
   2615  O66       73.0390   87.0020  136.3480 O.2     5  MOL5       -0.2502
   2616  O66       73.7390   85.1470  137.4660 O.3     5  MOL5       -0.4605
   2617  C66       73.6440   84.0300  136.4890 C.3     5  MOL5        0.1290
   2618  C66       74.7680   82.9530  136.3030 C.3     5  MOL5        0.1341
   2619  C66       75.8020   83.6540  135.5170 C.3     5  MOL5       -0.0244
   2620  C67       81.8470   78.7650  136.0770 C.3     5  MOL5        0.0162
   2621  C67       83.1080   79.6500  135.5230 C.3     5  MOL5       -0.0305
   2622  C67       84.3340   80.6700  135.7800 C.3     5  MOL5        0.0050
   2623  S67       85.7100   80.5260  137.0590 S.3     5  MOL5       -0.0928
   2624  C67       80.5100   78.3340  137.0190 C.3     5  MOL5       -0.0403
   2625  C67       79.2240   78.3470  138.0320 C.3     5  MOL5       -0.0515
   2626  C67       77.8770   79.0180  138.6360 C.3     5  MOL5       -0.0429
   2627  C67       76.5340   79.8650  138.3460 C.3     5  MOL5        0.0450
   2628  C67       75.5360   80.6200  137.3420 C.2     5  MOL5        0.3074
   2629  O67       75.5820   81.9790  137.1430 O.3     5  MOL5       -0.4582
   2630  O68       74.6800   79.9620  136.8500 O.2     5  MOL5       -0.2508
   2631  C68       82.3400   79.9860  126.5930 C.3     5  MOL5        0.0162
   2632  C68       79.0520   89.1060  143.2850 C.2     5  MOL5        0.3344
   2633  C68       79.4520   89.1330  144.7620 C.2     5  MOL5        0.0264
   2634  C68       80.6740   88.7850  145.1900 C.2     5  MOL5       -0.0890
   2635  C68       78.5040   89.4680  145.8830 C.3     5  MOL5       -0.0335
   2636  O68       77.9460   89.4670  142.9750 O.2     5  MOL5       -0.2453
   2637  O68       79.9400   88.6670  142.3340 O.3     5  MOL5       -0.4577
   2638  C68       79.9780   88.1410  140.9380 C.3     5  MOL5        0.1293
   2639  C68       80.3080   86.6780  140.3530 C.3     5  MOL5        0.1341
   2640  C69       80.5020   87.1140  138.8710 C.3     5  MOL5       -0.0244
   2641  C69       87.6720   82.2190  138.5890 C.3     5  MOL5        0.0162
   2642  C69       88.7740   81.2970  139.1060 C.3     5  MOL5       -0.0313
   2643  C69       88.9360   81.6690  140.5580 C.3     5  MOL5       -0.0056
   2644  S69       88.7270   80.3400  141.7190 S.3     5  MOL5       -0.1641
   2645  C69       87.6580   83.7400  139.3040 C.3     5  MOL5       -0.0403
   2646  C69       86.5980   84.6390  140.2760 C.3     5  MOL5       -0.0515
   2647  C69       85.2780   85.0950  141.2430 C.3     5  MOL5       -0.0429
   2648  C69       83.7480   85.0980  142.0290 C.3     5  MOL5        0.0450
   2649  C69       82.0760   84.7710  141.9120 C.2     5  MOL5        0.3074
   2650  O70       81.0570   85.5160  141.1390 O.3     5  MOL5       -0.4582
   2651  O70       81.6280   83.8720  142.5400 O.2     5  MOL5       -0.2508
   2652  C70       88.3680   81.2070  143.3000 C.3     5  MOL5       -0.0181
   2653  S70       87.2700   81.9050  136.8010 S.3     5  MOL5       -0.0897
   2654  C70       71.2420   81.6100  127.8450 C.2     5  MOL5        0.3344
   2655  C70       70.4260   80.5240  127.3340 C.2     5  MOL5        0.0264
   2656  C70       70.5720   79.3030  127.8850 C.2     5  MOL5       -0.0890
   2657  C70       69.4090   80.8680  126.3060 C.3     5  MOL5       -0.0335
   2658  O70       71.2530   82.7240  127.3740 O.2     5  MOL5       -0.2453
   2659  O70       71.9840   81.3670  128.9420 O.3     5  MOL5       -0.4577
   2660  C71       71.8140   82.2370  130.0360 C.3     5  MOL5        0.1293
   2661  C71       72.4990   83.5520  129.9160 C.3     5  MOL5        0.1341
   2662  C71       72.3500   84.3170  131.2240 C.3     5  MOL5       -0.0244
   2663  S71       82.2280   84.3500  130.1600 S.3     5  MOL5       -0.0897
   2664  C71       80.5660   83.3830  130.4610 C.3     5  MOL5        0.0162
   2665  C71       80.1080   81.8540  130.7920 C.3     5  MOL5       -0.0305
   2666  C71       80.3130   80.4450  131.5760 C.3     5  MOL5        0.0050
   2667  S71       80.8130   79.2450  132.9050 S.3     5  MOL5       -0.0928
   2668  C71       79.7270   84.5540  130.9550 C.3     5  MOL5       -0.0403
   2669  C71       78.1880   84.5060  130.8620 C.3     5  MOL5       -0.0515
   2670  C72       77.1060   85.0490  129.8870 C.3     5  MOL5       -0.0429
   2671  C72       75.9550   84.2870  129.1670 C.3     5  MOL5        0.0450
   2672  C72       74.9350   83.4030  129.8620 C.2     5  MOL5        0.3074
   2673  O72       73.7630   83.6410  129.2440 O.3     5  MOL5       -0.4582
   2674  O72       75.0750   82.7030  130.8100 O.2     5  MOL5       -0.2508
   2675  S72       81.4030   78.0570  134.3920 S.3     5  MOL5       -0.0897
   2676  C72       70.3890   98.3810  150.5630 C.3     5  MOL5       -0.0559
   2677  C72       70.8410   97.0860  149.9370 C.3     5  MOL5       -0.0533
   2678  C72       72.2070   96.4130  150.1080 C.3     5  MOL5       -0.0531
   2679  C72       72.1520   95.1860  149.1890 C.3     5  MOL5       -0.0531
   2680  C73       72.8320   93.8310  149.3870 C.3     5  MOL5       -0.0531
   2681  C73       72.0060   92.7370  148.6530 C.3     5  MOL5       -0.0531
   2682  C73       72.8330   92.0390  147.5860 C.3     5  MOL5       -0.0531
   2683  C73       72.3510   91.9320  146.1410 C.3     5  MOL5       -0.0530
   2684  C73       73.4750   91.1860  145.4420 C.3     5  MOL5       -0.0500
   2685  C73       74.0040   91.4030  144.0500 C.3     5  MOL5       -0.0185
   2686  C73       74.9460   90.2820  143.7810 C.3     5  MOL5        0.0925
   2687  C73       68.9260   98.6090  150.1480 C.3     5  MOL5       -0.0653
   2688  C73       75.9860   90.1370  140.3350 C.3     5  MOL5        0.0537
   2689  C73       75.8750   90.8160  141.6730 C.2     5  MOL5        0.3099
   2690  O74       75.0330   90.0510  142.3920 O.3     5  MOL5       -0.4644
   2691  O74       76.4200   91.7700  142.1710 O.2     5  MOL5       -0.2505
   2692  C74       76.2840   90.8510  139.0040 C.3     5  MOL5       -0.0523
   2693  C74       74.8300   89.0870  140.2580 C.3     5  MOL5       -0.0394
   2694  C74       74.0250   86.1990  139.7990 C.3     5  MOL5       -0.0497
   2695  O74       95.2110   68.4340  116.8530 O.2     5  MOL5       -0.2510
   2696  O74       95.1360   70.4680  115.8740 O.3     5  MOL5       -0.4806
   2697  C74       94.6060   69.2780  116.2670 C.2     5  MOL5        0.3047
   2698  C74       93.1310   69.2730  115.9530 C.3     5  MOL5        0.0448
   2699  C74       92.4320   67.9510  115.5680 C.3     5  MOL5       -0.0430
   2700  C75       91.2490   67.8020  116.4970 C.3     5  MOL5       -0.0515
   2701  C75       90.0190   66.9710  116.1720 C.3     5  MOL5       -0.0403
   2702  S75       86.7220   69.8600  118.6880 S.3     5  MOL5       -0.0928
   2703  C75       87.9110   68.5650  118.9170 C.3     5  MOL5        0.0050
   2704  C75       88.8970   68.4820  117.8050 C.3     5  MOL5       -0.0305
   2705  C75       88.4230   75.5780  129.2340 C.2     5  MOL5        0.3129
   2706  C75       89.9010   75.2800  129.5440 C.3     5  MOL5        0.0622
   2707  C75       90.5020   74.6710  128.2960 C.3     5  MOL5       -0.0370
   2708  C75       90.5390   76.6690  129.5510 C.3     5  MOL5       -0.0497
   2709  O75       88.0360   76.7090  129.3110 O.2     5  MOL5       -0.2502
   2710  O76       87.6370   74.5330  128.7360 O.3     5  MOL5       -0.4605
   2711  C76       87.3780   73.3190  129.4660 C.3     5  MOL5        0.1290
   2712  C76       86.2300   72.3710  129.0990 C.3     5  MOL5        0.1341
   2713  C76       84.7470   72.5990  128.8350 C.3     5  MOL5       -0.0244
   2714  C76       83.5220   73.3570  123.7060 C.3     5  MOL5        0.0162
   2715  C76       82.0000   73.9950  124.0600 C.3     5  MOL5       -0.0305
   2716  C76       80.6090   74.8700  124.2960 C.3     5  MOL5        0.0050
   2717  S76       79.9100   76.5810  124.2340 S.3     5  MOL5       -0.0928
   2718  C76       84.2510   72.7930  124.9190 C.3     5  MOL5       -0.0403
   2719  C76       85.8310   72.8260  124.8340 C.3     5  MOL5       -0.0515
   2720  C77       86.8170   71.6900  125.2630 C.3     5  MOL5       -0.0429
   2721  C77       86.5250   70.4380  126.1150 C.3     5  MOL5        0.0450
   2722  C77       86.3480   70.5510  127.5480 C.2     5  MOL5        0.3074
   2723  O77       86.5960   71.8340  127.8320 O.3     5  MOL5       -0.4582
   2724  O77       86.0260   69.6930  128.3370 O.2     5  MOL5       -0.2508
   2725  S77       87.2500   67.0840  116.1400 S.3     5  MOL5       -0.0897
   2726  C77       88.8130   67.1560  117.0910 C.3     5  MOL5        0.0162
   2727  C77       73.4410   81.3040  121.2360 C.2     5  MOL5        0.3344
   2728  C77       72.2420   82.0730  121.0590 C.2     5  MOL5        0.0264
   2729  C77       71.3260   82.1060  122.0380 C.2     5  MOL5       -0.0890
   2730  C78       72.1450   82.7200  119.7370 C.3     5  MOL5       -0.0335
   2731  O78       74.0980   80.9000  120.3000 O.2     5  MOL5       -0.2453
   2732  O78       73.8120   81.0780  122.5090 O.3     5  MOL5       -0.4577
   2733  C78       74.7750   80.0810  122.7010 C.3     5  MOL5        0.1293
   2734  C78       76.1190   80.4590  123.1570 C.3     5  MOL5        0.1341
   2735  C78       76.6850   79.0550  123.6720 C.3     5  MOL5       -0.0244
   2736  C78       81.9090   79.0580  123.2910 C.3     5  MOL5        0.0162
   2737  C78       83.3880   79.2170  122.8480 C.3     5  MOL5       -0.0305
   2738  C78       84.0010   80.5810  122.7440 C.3     5  MOL5        0.0050
   2739  S78       84.8860   80.9220  124.2330 S.3     5  MOL5       -0.0928
   2740  C79       80.9420   79.1990  122.1470 C.3     5  MOL5       -0.0403
   2741  C79       80.9690   80.7250  121.7020 C.3     5  MOL5       -0.0515
   2742  C79       80.0190   81.7120  120.8040 C.3     5  MOL5       -0.0429
   2743  C79       78.5960   82.5590  120.9480 C.3     5  MOL5        0.0450
   2744  C79       77.0700   82.1500  121.2880 C.2     5  MOL5        0.3074
   2745  O79       76.9080   81.5750  122.5300 O.3     5  MOL5       -0.4582
   2746  O79       76.2170   82.2850  120.4590 O.2     5  MOL5       -0.2508
   2747  S79       83.1420   81.0530  125.2900 S.3     5  MOL5       -0.0897
   2748  S79       81.3760   77.9220  124.6810 S.3     5  MOL5       -0.0897
   2749  C79       91.3200   67.1910  119.6400 C.2     5  MOL5        0.3344
   2750  C80       91.5750   66.0190  118.7900 C.2     5  MOL5        0.0264
   2751  C80       90.5710   65.1690  118.8200 C.2     5  MOL5       -0.0890
   2752  C80       92.7320   65.7910  117.8510 C.3     5  MOL5       -0.0335
   2753  O80       92.0290   68.1600  119.5790 O.2     5  MOL5       -0.2453
   2754  O80       90.2750   67.2260  120.5430 O.3     5  MOL5       -0.4577
   2755  C80       90.5730   68.1240  121.6050 C.3     5  MOL5        0.1293
   2756  C80       89.9750   69.4580  121.5510 C.3     5  MOL5        0.1341
   2757  C80       90.0780   70.0780  122.9610 C.3     5  MOL5       -0.0244
   2758  S80       86.0750   69.7050  116.7480 S.3     5  MOL5       -0.0897
   2759  C80       85.3140   71.3470  116.8240 C.3     5  MOL5        0.0162
   2760  C81       84.0980   71.1360  117.7710 C.3     5  MOL5       -0.0305
   2761  C81       83.7850   72.0090  118.9750 C.3     5  MOL5        0.0050
   2762  S81       84.4860   71.2920  120.5280 S.3     5  MOL5       -0.0928
   2763  C81       86.4060   72.3540  117.1970 C.3     5  MOL5       -0.0403
   2764  C81       87.8480   72.1790  116.6500 C.3     5  MOL5       -0.0515
   2765  C81       89.0630   72.3740  117.6400 C.3     5  MOL5       -0.0429
   2766  C81       90.0790   71.8750  118.7170 C.3     5  MOL5        0.0450
   2767  C81       89.8240   71.2990  120.0870 C.2     5  MOL5        0.3074
   2768  O81       90.3470   70.0740  120.2900 O.3     5  MOL5       -0.4582
   2769  O81       89.3920   71.9350  120.9990 O.2     5  MOL5       -0.2508
   2770  S82       84.2740   72.0300  122.4790 S.3     5  MOL5       -0.0897
   2771  C82      104.5470   69.4450  131.7050 C.3     5  MOL5       -0.0559
   2772  C82      103.8320   70.6240  131.1050 C.3     5  MOL5       -0.0533
   2773  C82      102.8740   70.1070  130.0400 C.3     5  MOL5       -0.0531
   2774  C82      101.4430   70.2000  130.5700 C.3     5  MOL5       -0.0531
   2775  C82      100.2580   69.6320  129.7460 C.3     5  MOL5       -0.0531
   2776  C82       99.1930   70.6690  129.9370 C.3     5  MOL5       -0.0531
   2777  C82       97.9090   71.0280  129.2310 C.3     5  MOL5       -0.0531
   2778  C82       96.7410   70.2600  128.6930 C.3     5  MOL5       -0.0530
   2779  C82       96.5770   70.4470  127.2100 C.3     5  MOL5       -0.0500
   2780  C83       96.5760   71.9020  126.7350 C.3     5  MOL5       -0.0185
   2781  C83       96.1560   72.9790  127.7260 C.3     5  MOL5        0.0925
   2782  C83      105.4600   69.7780  132.8240 C.3     5  MOL5       -0.0653
   2783  C83       92.7510   73.7120  128.7010 C.3     5  MOL5        0.0537
   2784  C83       94.2250   73.9330  128.7040 C.2     5  MOL5        0.3099
   2785  O83       94.7760   72.8930  128.0440 O.3     5  MOL5       -0.4644
   2786  O83       94.8430   74.8550  129.1900 O.2     5  MOL5       -0.2505
   2787  C83       92.2430   72.4970  127.9230 C.3     5  MOL5       -0.0523
   2788  C83       92.0070   74.8750  128.0920 C.3     5  MOL5       -0.0394
   2789  C83       90.0450   74.5310  130.8670 C.3     5  MOL5       -0.0497
   2790  O84       73.7460   66.8160   98.3890 O.2     5  MOL5       -0.2510
   2791  O84       75.2410   68.3120   99.1500 O.3     5  MOL5       -0.4806
   2792  C84       74.7380   67.0490   99.0000 C.2     5  MOL5        0.3047
   2793  C84       75.6030   66.0470   99.7620 C.3     5  MOL5        0.0448
   2794  C84       75.1880   64.5390   99.5880 C.3     5  MOL5       -0.0430
   2795  C84       75.7800   63.2070  100.3050 C.3     5  MOL5       -0.0516
   2796  C84       76.4120   61.8960  101.0370 C.3     5  MOL5       -0.0411
   2797  S84       80.6160   62.6520  104.2390 S.3     5  MOL5       -0.0928
   2798  C84       79.9020   61.1770  103.4280 C.3     5  MOL5        0.0049
   2799  C84       78.5620   61.7980  102.9600 C.3     5  MOL5       -0.0313
   2800  C85       75.9930   72.4130  110.4830 C.2     5  MOL5        0.3129
   2801  C85       75.1880   72.1000  111.7190 C.3     5  MOL5        0.0622
   2802  C85       75.8010   72.3440  113.1270 C.3     5  MOL5       -0.0370
   2803  C85       73.8030   72.5190  111.3910 C.3     5  MOL5       -0.0497
   2804  O85       75.6450   73.0960  109.5500 O.2     5  MOL5       -0.2502
   2805  O85       77.1250   71.6550  110.5140 O.3     5  MOL5       -0.4605
   2806  C85       77.6000   71.2920  109.2310 C.3     5  MOL5        0.1290
   2807  C85       77.6800   69.8460  108.9440 C.3     5  MOL5        0.1341
   2808  C85       78.0400   69.8320  107.4750 C.3     5  MOL5       -0.0244
   2809  C85       83.4520   69.3490  109.2280 C.3     5  MOL5        0.0162
   2810  C86       84.8410   69.4330  108.6000 C.3     5  MOL5       -0.0305
   2811  C86       85.8350   68.7230  109.4950 C.3     5  MOL5        0.0050
   2812  S86       86.7170   67.2860  108.9370 S.3     5  MOL5       -0.0928
   2813  C86       82.8480   70.7120  109.2770 C.3     5  MOL5       -0.0403
   2814  C86       81.3340   70.7980  109.3710 C.3     5  MOL5       -0.0515
   2815  C86       80.8430   70.2070  110.6950 C.3     5  MOL5       -0.0429
   2816  C86       80.5780   68.7010  110.6550 C.3     5  MOL5        0.0450
   2817  C86       79.6380   68.4610  109.5340 C.2     5  MOL5        0.3074
   2818  O86       78.7100   69.3900  109.8000 O.3     5  MOL5       -0.4582
   2819  O86       79.6510   67.6700  108.6240 O.2     5  MOL5       -0.2508
   2820  S87       77.6150   59.4650  101.7000 S.3     5  MOL5       -0.1607
   2821  C87       77.7080   61.2720  101.7620 C.3     5  MOL5        0.0058
   2822  C87       79.3100   58.9650  101.5470 C.3     5  MOL5       -0.0178
   2823  C87       82.6390   74.2410  116.5490 C.2     5  MOL5        0.3344
   2824  C87       83.9460   74.9050  116.5720 C.2     5  MOL5        0.0264
   2825  C87       84.8360   74.5690  115.6300 C.2     5  MOL5       -0.0890
   2826  C87       84.2430   75.8960  117.6640 C.3     5  MOL5       -0.0335
   2827  O87       81.8460   74.4680  117.4360 O.2     5  MOL5       -0.2453
   2828  O87       82.3170   73.3290  115.5650 O.3     5  MOL5       -0.4577
   2829  C87       81.0630   72.6630  115.7770 C.3     5  MOL5        0.1293
   2830  C88       80.9460   71.2970  115.1280 C.3     5  MOL5        0.1341
   2831  C88       79.8720   70.9050  114.0620 C.3     5  MOL5       -0.0244
   2832  C88       87.0400   66.5420  111.7960 C.3     5  MOL5        0.0162
   2833  C88       87.9300   65.5190  112.5610 C.3     5  MOL5       -0.0305
   2834  C88       88.2770   65.3640  114.0280 C.3     5  MOL5        0.0050
   2835  S88       87.0740   65.2290  115.3740 S.3     5  MOL5       -0.0928
   2836  C88       86.0100   67.3200  112.6380 C.3     5  MOL5       -0.0403
   2837  C88       85.9680   68.8430  112.6580 C.3     5  MOL5       -0.0515
   2838  C88       84.5250   69.3280  112.6580 C.3     5  MOL5       -0.0429
   2839  C88       83.9440   69.3060  114.0480 C.3     5  MOL5        0.0450
   2840  C89       82.5070   69.7320  113.9720 C.2     5  MOL5        0.3074
   2841  O89       82.2760   70.7740  114.8290 O.3     5  MOL5       -0.4582
   2842  O89       81.7110   69.1860  113.2580 O.2     5  MOL5       -0.2508
   2843  S89       87.9590   67.4600  110.5230 S.3     5  MOL5       -0.0897
   2844  C89       72.7480   69.3780  102.1660 C.2     5  MOL5        0.3344
   2845  C89       71.7950   68.4390  101.5920 C.2     5  MOL5        0.0264
   2846  C89       72.3860   67.4290  100.9670 C.2     5  MOL5       -0.0890
   2847  C89       70.3150   68.5760  101.7080 C.3     5  MOL5       -0.0335
   2848  O89       72.4080   70.4480  102.6250 O.2     5  MOL5       -0.2453
   2849  O89       74.0740   68.9890  102.2040 O.3     5  MOL5       -0.4577
   2850  C90       74.7530   69.2220  103.4370 C.3     5  MOL5        0.1293
   2851  C90       76.1690   69.5620  103.1350 C.3     5  MOL5        0.1341
   2852  C90       76.8430   70.7220  103.9190 C.3     5  MOL5       -0.0244
   2853  S90       82.6200   62.6820  104.7360 S.3     5  MOL5       -0.0897
   2854  C90       82.2800   64.1830  105.7000 C.3     5  MOL5        0.0162
   2855  C90       83.1820   64.5720  106.8690 C.3     5  MOL5       -0.0305
   2856  C90       82.4700   65.7100  107.5670 C.3     5  MOL5        0.0050
   2857  S90       83.4230   66.5510  108.8250 S.3     5  MOL5       -0.0928
   2858  C90       82.0260   65.3580  104.7690 C.3     5  MOL5       -0.0403
   2859  C90       80.5490   65.7650  104.8610 C.3     5  MOL5       -0.0515
   2860  C91       80.1420   67.1980  104.5680 C.3     5  MOL5       -0.0429
   2861  C91       78.9150   67.3750  103.6750 C.3     5  MOL5        0.0450
   2862  C91       77.6600   68.0820  104.1070 C.2     5  MOL5        0.3074
   2863  O91       77.0680   68.4640  102.9530 O.3     5  MOL5       -0.4582
   2864  O91       77.1930   68.3320  105.1820 O.2     5  MOL5       -0.2508
   2865  S91       82.4330   68.2370  108.3140 S.3     5  MOL5       -0.0897
   2866  C91       65.2060   79.7080  119.3190 C.3     5  MOL5       -0.0559
   2867  C91       66.1680   78.9440  120.2030 C.3     5  MOL5       -0.0533
   2868  C91       67.1470   78.3030  119.2140 C.3     5  MOL5       -0.0531
   2869  C91       67.8030   77.1430  119.8570 C.3     5  MOL5       -0.0531
   2870  C92       69.0090   76.5140  119.2380 C.3     5  MOL5       -0.0531
   2871  C92       69.5150   75.5630  120.3230 C.3     5  MOL5       -0.0531
   2872  C92       70.9870   75.1840  120.3410 C.3     5  MOL5       -0.0531
   2873  C92       71.8900   75.4850  119.1410 C.3     5  MOL5       -0.0530
   2874  C92       73.2950   75.8550  119.5170 C.3     5  MOL5       -0.0500
   2875  C92       74.2760   75.0700  118.7080 C.3     5  MOL5       -0.0185
   2876  C92       75.5660   75.6980  118.2580 C.3     5  MOL5        0.0925
   2877  C92       64.4720   80.9990  119.5610 C.3     5  MOL5       -0.0653
   2878  C92       75.2960   74.8270  114.7430 C.3     5  MOL5        0.0537
   2879  C92       76.1550   75.0090  115.9500 C.2     5  MOL5        0.3099
   2880  O93       75.4040   75.6480  116.8500 O.3     5  MOL5       -0.4644
   2881  O93       77.2990   74.6700  116.0830 O.2     5  MOL5       -0.2505
   2882  C93       73.9570   75.5880  114.9310 C.3     5  MOL5       -0.0523
   2883  C93       75.3430   73.2920  114.2860 C.3     5  MOL5       -0.0394
   2884  C93       75.1810   70.5910  111.6760 C.3     5  MOL5       -0.0497
   2885 5H93       74.8800   81.9390  127.8000 H       5  MOL5        0.2951
   2886 6H93       75.8020   80.0960  126.2350 H       5  MOL5        0.0377
   2887 7H93       76.2420   81.0790  127.5800 H       5  MOL5        0.0377
   2888 8H93       78.3380   81.0350  125.5450 H       5  MOL5        0.0270
   2889 9H93       77.8240   79.4250  125.7790 H       5  MOL5        0.0270
   2890 0H94       78.8740   78.9120  127.4960 H       5  MOL5        0.0266
   2891 1H94       79.1250   80.2870  128.3710 H       5  MOL5        0.0266
   2892 2H94       80.2540   79.7130  125.5770 H       5  MOL5        0.0276
   2893 3H94       80.7240   78.7740  127.0140 H       5  MOL5        0.0276
   2894 4H94       84.8020   81.3360  128.6480 H       5  MOL5        0.0385
   2895 5H94       84.2180   81.9230  127.1830 H       5  MOL5        0.0385
   2896 6H94       82.2990   79.7760  128.5970 H       5  MOL5        0.0284
   2897 7H94       83.8500   79.5540  127.9410 H       5  MOL5        0.0284
   2898 8H94       74.3110   89.0940  138.1230 H       5  MOL5        0.0276
   2899 9H94       75.7290   88.3220  138.6770 H       5  MOL5        0.0276
   2900 0H95       71.6320   87.7480  138.6800 H       5  MOL5        0.0240
   2901 1H95       72.5310   88.9840  139.3510 H       5  MOL5        0.0240
   2902 2H95       72.2650   87.5700  140.2820 H       5  MOL5        0.0240
   2903 3H95       72.6960   83.4980  136.6100 H       5  MOL5        0.0735
   2904 4H95       73.5660   84.4710  135.4770 H       5  MOL5        0.0735
   2905 5H95       74.3170   82.3670  135.5330 H       5  MOL5        0.0765
   2906 6H95       76.4890   82.8520  135.3460 H       5  MOL5        0.0266
   2907 7H95       76.4120   84.4310  135.9470 H       5  MOL5        0.0266
   2908 8H95       75.2970   84.0910  134.6670 H       5  MOL5        0.0266
   2909 9H95       82.3550   77.7960  136.2680 H       5  MOL5        0.0421
   2910 0H96       82.7070   80.1910  134.6420 H       5  MOL5        0.0284
   2911 1H96       83.6040   78.7920  135.0500 H       5  MOL5        0.0284
   2912 2H96       84.0160   81.7150  135.7200 H       5  MOL5        0.0385
   2913 3H96       84.7560   80.5380  134.7940 H       5  MOL5        0.0385
   2914 4H96       79.9060   78.1960  136.1460 H       5  MOL5        0.0276
   2915 5H96       80.7800   77.2850  137.1970 H       5  MOL5        0.0276
   2916 6H96       79.6630   78.1320  139.0270 H       5  MOL5        0.0266
   2917 7H96       78.8520   77.3670  137.6870 H       5  MOL5        0.0266
   2918 8H96       78.2210   79.4830  139.5860 H       5  MOL5        0.0270
   2919 9H96       77.4200   78.0830  139.0110 H       5  MOL5        0.0270
   2920 0H97       76.1720   80.0200  139.3750 H       5  MOL5        0.0377
   2921 1H97       76.0000   78.9370  138.0810 H       5  MOL5        0.0377
   2922 2H97       82.6210   78.9330  126.4590 H       5  MOL5        0.0421
   2923 3H97       80.8990   88.7120  146.2530 H       5  MOL5        0.0540
   2924 4H97       81.4590   88.4140  144.5410 H       5  MOL5        0.0540
   2925 5H97       78.9180   90.2560  146.5210 H       5  MOL5        0.0280
   2926 6H97       78.4270   88.6230  146.5660 H       5  MOL5        0.0280
   2927 7H97       77.5000   89.6930  145.5170 H       5  MOL5        0.0280
   2928 8H97       79.0950   88.4930  140.4060 H       5  MOL5        0.0735
   2929 9H97       80.8420   88.7070  140.5700 H       5  MOL5        0.0735
   2930 0H98       79.4510   86.0650  140.2840 H       5  MOL5        0.0765
   2931 1H98       79.6490   87.7810  138.6550 H       5  MOL5        0.0266
   2932 2H98       80.4170   86.3540  138.0930 H       5  MOL5        0.0266
   2933 3H98       81.3960   87.7110  138.6510 H       5  MOL5        0.0266
   2934 4H98       86.9500   81.5130  138.9570 H       5  MOL5        0.0421
   2935 5H98       89.7050   81.4370  138.5870 H       5  MOL5        0.0284
   2936 6H98       88.4680   80.2420  138.9880 H       5  MOL5        0.0284
   2937 7H98       88.1010   82.2920  140.8860 H       5  MOL5        0.0377
   2938 8H98       89.8710   82.2280  140.5770 H       5  MOL5        0.0377
   2939 9H98       88.5920   83.8120  139.8880 H       5  MOL5        0.0276
   2940 0H99       87.8450   84.5310  138.5760 H       5  MOL5        0.0276
   2941 1H99       86.2010   85.1930  139.4210 H       5  MOL5        0.0266
   2942 2H99       87.3070   85.3820  140.7020 H       5  MOL5        0.0266
   2943 3H99       85.2280   86.1000  140.7660 H       5  MOL5        0.0270
   2944 4H99       85.8960   85.4880  142.0040 H       5  MOL5        0.0270
   2945 5H99       83.8990   85.9540  142.6440 H       5  MOL5        0.0377
   2946 6H99       83.7650   84.2750  142.7120 H       5  MOL5        0.0377
   2947 7H99       89.1840   81.2500  144.0340 H       5  MOL5        0.0340
   2948 8H99       87.5830   80.6970  143.8450 H       5  MOL5        0.0340
   2949 9H99       87.9910   82.2080  143.1220 H       5  MOL5        0.0340
   2950  H10       69.9990   78.4450  127.5520 H       5  MOL5        0.0540
   2951  H10       71.2390   79.1200  128.7200 H       5  MOL5        0.0540
   2952  H10       69.8980   81.0440  125.3500 H       5  MOL5        0.0280
   2953  H10       68.8150   81.7570  126.5460 H       5  MOL5        0.0280
   2954  H10       68.6980   80.0390  126.2320 H       5  MOL5        0.0280
   2955  H10       70.7550   82.4700  130.1780 H       5  MOL5        0.0735
   2956  H10       72.0590   81.6400  130.9150 H       5  MOL5        0.0735
   2957  H10       71.8810   84.0840  129.1970 H       5  MOL5        0.0765
   2958  H10       72.9050   85.2520  131.2760 H       5  MOL5        0.0266
   2959  H10       72.6240   83.7260  132.1020 H       5  MOL5        0.0266
   2960  H10       71.2960   84.5730  131.3140 H       5  MOL5        0.0266
   2961  H10       79.9610   83.3670  129.5930 H       5  MOL5        0.0421
   2962  H10       79.1220   82.1450  131.0910 H       5  MOL5        0.0284
   2963  H10       79.9820   81.4100  129.7950 H       5  MOL5        0.0284
   2964  H10       80.7100   79.7570  130.8190 H       5  MOL5        0.0385
   2965  H10       79.3610   79.9070  131.4830 H       5  MOL5        0.0385
   2966  H10       80.0440   85.3160  130.3020 H       5  MOL5        0.0276
   2967  H10       80.0870   84.9620  131.9040 H       5  MOL5        0.0276
   2968  H10       77.9910   85.0800  131.7450 H       5  MOL5        0.0266
   2969  H10       77.9040   83.5050  131.0410 H       5  MOL5        0.0266
   2970  H10       77.4910   85.7120  129.1190 H       5  MOL5        0.0270
   2971  H10       76.5590   85.7460  130.5190 H       5  MOL5        0.0270
   2972  H10       76.1450   83.8310  128.2030 H       5  MOL5        0.0377
   2973  H10       75.3220   85.0610  128.7870 H       5  MOL5        0.0377
   2974  H10       71.0030   99.1820  150.1730 H       5  MOL5        0.0263
   2975  H10       70.5460   98.4210  151.6390 H       5  MOL5        0.0263
   2976  H10       70.7440   97.3130  148.8890 H       5  MOL5        0.0265
   2977  H10       70.0730   96.3370  150.1660 H       5  MOL5        0.0265
   2978  H10       72.3780   96.1450  151.1430 H       5  MOL5        0.0265
   2979  H10       73.0380   97.0730  149.8180 H       5  MOL5        0.0265
   2980  H10       72.4970   95.5570  148.2280 H       5  MOL5        0.0265
   2981  H10       71.0920   94.9440  149.0690 H       5  MOL5        0.0265
   2982  H10       72.9230   93.5260  150.4250 H       5  MOL5        0.0265
   2983  H10       73.8750   93.8720  149.0340 H       5  MOL5        0.0265
   2984  H10       71.0680   93.1300  148.2350 H       5  MOL5        0.0265
   2985  H10       71.6800   91.9800  149.3780 H       5  MOL5        0.0265
   2986  H10       73.0500   91.0240  147.9400 H       5  MOL5        0.0265
   2987  H10       73.8020   92.5600  147.5250 H       5  MOL5        0.0265
   2988  H10       72.2280   92.8990  145.6720 H       5  MOL5        0.0265
   2989  H10       71.3810   91.4220  146.0550 H       5  MOL5        0.0265
   2990  H10       73.2610   90.1290  145.5260 H       5  MOL5        0.0266
   2991  H10       74.3680   91.3450  146.0450 H       5  MOL5        0.0266
   2992  H10       74.5630   92.3300  143.9800 H       5  MOL5        0.0298
   2993  H10       73.2910   91.3540  143.2250 H       5  MOL5        0.0298
   2994  H10       74.4730   89.3930  144.1730 H       5  MOL5        0.0697
   2995  H10       75.9330   90.3840  144.2430 H       5  MOL5        0.0697
   2996  H10       68.3030   97.7330  150.3440 H       5  MOL5        0.0230
   2997  H10       68.8520   98.8290  149.0790 H       5  MOL5        0.0230
   2998  H10       68.4350   99.4390  150.6570 H       5  MOL5        0.0230
   2999  H10       76.9370   89.6290  140.5280 H       5  MOL5        0.0411
   3000  H10       76.0250   91.8980  138.9840 H       5  MOL5        0.0238
   3001  H10       75.7760   90.3930  138.1550 H       5  MOL5        0.0238
   3002  H10       77.3340   90.7480  138.7140 H       5  MOL5        0.0238
   3003  H10       73.9140   89.5670  140.5780 H       5  MOL5        0.0273
   3004  H10       75.0220   88.3500  141.0380 H       5  MOL5        0.0273
   3005  H10       74.4950   86.6630  140.6610 H       5  MOL5        0.0240
   3006  H10       74.6850   85.4240  139.4580 H       5  MOL5        0.0240
   3007  H10       73.1010   85.7520  140.1140 H       5  MOL5        0.0240
   3008  H10       94.4710   70.9750  115.4050 H       5  MOL5        0.2951
   3009  H10       92.9390   70.0100  115.1800 H       5  MOL5        0.0377
   3010  H10       92.7350   69.6520  116.9040 H       5  MOL5        0.0377
   3011  H10       93.0890   67.0730  115.6120 H       5  MOL5        0.0270
   3012  H10       92.0790   68.0290  114.5400 H       5  MOL5        0.0270
   3013  H10       90.7900   68.7600  116.6090 H       5  MOL5        0.0266
   3014  H10       91.6870   67.7220  117.4640 H       5  MOL5        0.0266
   3015  H10       90.1640   65.9160  115.9760 H       5  MOL5        0.0276
   3016  H10       89.6960   67.4570  115.2650 H       5  MOL5        0.0276
   3017  H10       87.5300   67.5820  119.1910 H       5  MOL5        0.0385
   3018  H10       88.4520   68.9340  119.7760 H       5  MOL5        0.0385
   3019  H10       89.8770   68.6140  118.2800 H       5  MOL5        0.0284
   3020  H10       88.7850   69.3000  117.0910 H       5  MOL5        0.0284
   3021  H10       89.9970   75.1210  127.4360 H       5  MOL5        0.0276
   3022  H10       90.2750   73.6190  128.2920 H       5  MOL5        0.0276
   3023  H10       90.5280   77.0030  128.5050 H       5  MOL5        0.0240
   3024  H10       91.5800   76.7420  129.8800 H       5  MOL5        0.0240
   3025  H10       89.9540   77.3660  130.1500 H       5  MOL5        0.0240
   3026  H10       87.3920   73.5110  130.5410 H       5  MOL5        0.0735
   3027  H10       88.2250   72.6680  129.2900 H       5  MOL5        0.0735
   3028  H10       86.2700   71.5950  129.8820 H       5  MOL5        0.0765
   3029  H10       84.2830   71.6000  128.8110 H       5  MOL5        0.0266
   3030  H10       84.6150   73.0240  127.8350 H       5  MOL5        0.0266
   3031  H10       84.1680   73.1930  129.5260 H       5  MOL5        0.0266
   3032  H10       84.1480   74.1190  123.3110 H       5  MOL5        0.0421
   3033  H10       81.4840   73.2250  124.5900 H       5  MOL5        0.0284
   3034  H10       81.8000   74.2500  123.0370 H       5  MOL5        0.0284
   3035  H10       80.0830   74.3890  125.1200 H       5  MOL5        0.0385
   3036  H10       79.9810   74.4140  123.5080 H       5  MOL5        0.0385
   3037  H10       83.9310   71.7770  125.0000 H       5  MOL5        0.0276
   3038  H10       83.7970   73.2610  125.7930 H       5  MOL5        0.0276
   3039  H10       86.2980   73.7400  125.2170 H       5  MOL5        0.0266
   3040  H10       86.1070   72.9650  123.7950 H       5  MOL5        0.0266
   3041  H10       87.7050   72.2200  125.6260 H       5  MOL5        0.0270
   3042  H10       87.2060   71.2800  124.3280 H       5  MOL5        0.0270
   3043  H10       87.3040   69.7010  125.9000 H       5  MOL5        0.0377
   3044  H10       85.5840   69.9880  125.8280 H       5  MOL5        0.0377
   3045  H10       88.7790   66.3790  117.8460 H       5  MOL5        0.0421
   3046  H10       71.3860   81.4360  122.8830 H       5  MOL5        0.0540
   3047  H10       70.4220   82.6950  122.0760 H       5  MOL5        0.0540
   3048  H10       72.0670   83.8150  119.7510 H       5  MOL5        0.0280
   3049  H10       71.2720   82.2570  119.3560 H       5  MOL5        0.0280
   3050  H11       72.9770   82.4280  119.0870 H       5  MOL5        0.0280
   3051  H11       74.3770   79.4170  123.4840 H       5  MOL5        0.0735
   3052  H11       74.8560   79.4890  121.7980 H       5  MOL5        0.0735
   3053  H11       76.0020   80.8720  124.1340 H       5  MOL5        0.0765
   3054  H11       76.1790   78.8800  124.6300 H       5  MOL5        0.0266
   3055  H11       77.7500   78.9040  123.8620 H       5  MOL5        0.0266
   3056  H11       76.4150   78.1660  123.0960 H       5  MOL5        0.0266
   3057  H11       81.7140   79.9430  123.8300 H       5  MOL5        0.0421
   3058  H11       83.4170   78.8100  121.8490 H       5  MOL5        0.0284
   3059  H11       84.1140   78.6580  123.4210 H       5  MOL5        0.0284
   3060  H11       83.2590   81.3570  122.6870 H       5  MOL5        0.0385
   3061  H11       84.7330   80.6020  121.9250 H       5  MOL5        0.0385
   3062  H11       80.0340   78.6710  122.4740 H       5  MOL5        0.0276
   3063  H11       81.1580   78.6180  121.2660 H       5  MOL5        0.0276
   3064  H11       81.8880   80.6470  121.1720 H       5  MOL5        0.0266
   3065  H11       81.3050   81.2890  122.5720 H       5  MOL5        0.0266
   3066  H11       79.9250   81.1600  119.8670 H       5  MOL5        0.0270
   3067  H11       80.6680   82.5340  120.4980 H       5  MOL5        0.0270
   3068  H11       78.4880   82.8790  119.9060 H       5  MOL5        0.0377
   3069  H11       78.8050   83.5000  121.4790 H       5  MOL5        0.0377
   3070  H11       90.5450   64.2960  118.1930 H       5  MOL5        0.0540
   3071  H11       89.7020   65.4620  119.3950 H       5  MOL5        0.0540
   3072  H11       93.3660   66.6680  117.6710 H       5  MOL5        0.0280
   3073  H11       92.3260   65.5010  116.8770 H       5  MOL5        0.0280
   3074  H11       93.3480   64.9780  118.2160 H       5  MOL5        0.0280
   3075  H11       90.2740   67.6670  122.5180 H       5  MOL5        0.0735
   3076  H11       91.6480   68.1900  121.7880 H       5  MOL5        0.0735
   3077  H11       88.9140   69.3610  121.5000 H       5  MOL5        0.0765
   3078  H11       89.2100   69.7340  123.5450 H       5  MOL5        0.0266
   3079  H11       89.9460   71.1580  122.9840 H       5  MOL5        0.0266
   3080  H11       90.9530   69.7530  123.5380 H       5  MOL5        0.0266
   3081  H11       84.8910   71.5660  115.8380 H       5  MOL5        0.0421
   3082  H11       83.2070   71.1890  117.1220 H       5  MOL5        0.0284
   3083  H11       84.0440   70.1140  118.1660 H       5  MOL5        0.0284
   3084  H11       82.6920   71.9040  118.9710 H       5  MOL5        0.0385
   3085  H11       84.0720   73.0450  118.7710 H       5  MOL5        0.0385
   3086  H11       86.4890   72.1220  118.2210 H       5  MOL5        0.0276
   3087  H11       86.0790   73.3960  117.1960 H       5  MOL5        0.0276
   3088  H11       88.0230   73.0400  115.9780 H       5  MOL5        0.0266
   3089  H11       87.8620   71.3050  115.9980 H       5  MOL5        0.0266
   3090  H11       88.5690   73.0630  118.3030 H       5  MOL5        0.0270
   3091  H11       89.7360   73.0390  117.0870 H       5  MOL5        0.0270
   3092  H11       90.3670   72.8830  119.0330 H       5  MOL5        0.0377
   3093  H11       91.0580   71.4960  118.4190 H       5  MOL5        0.0377
   3094  H11      105.0760   68.8620  130.9470 H       5  MOL5        0.0263
   3095  H11      103.8190   68.8060  132.1770 H       5  MOL5        0.0263
   3096  H11      104.5490   71.3530  130.7050 H       5  MOL5        0.0265
   3097  H11      103.2860   71.1280  131.9200 H       5  MOL5        0.0265
   3098  H11      103.1460   69.0880  129.8230 H       5  MOL5        0.0265
   3099  H11      103.0320   70.5510  129.0540 H       5  MOL5        0.0265
   3100  H11      101.2830   71.2610  130.7880 H       5  MOL5        0.0265
   3101  H11      101.4310   69.7800  131.5770 H       5  MOL5        0.0265
   3102  H11       99.8360   68.7220  130.1250 H       5  MOL5        0.0265
   3103  H11      100.5450   69.3030  128.7490 H       5  MOL5        0.0265
   3104  H11       99.7110   71.5990  129.7510 H       5  MOL5        0.0265
   3105  H11       99.0020   70.6570  131.0180 H       5  MOL5        0.0265
   3106  H11       98.2010   71.5590  128.3370 H       5  MOL5        0.0265
   3107  H11       97.5500   71.8240  129.8930 H       5  MOL5        0.0265
   3108  H11       95.8750   70.8130  128.9650 H       5  MOL5        0.0265
   3109  H11       96.5540   69.2720  129.0780 H       5  MOL5        0.0265
   3110  H11       95.6300   69.9840  126.9600 H       5  MOL5        0.0266
   3111  H11       97.3980   69.9430  126.7330 H       5  MOL5        0.0266
   3112  H11       95.9470   72.0290  125.8430 H       5  MOL5        0.0298
   3113  H11       97.5920   72.1020  126.3730 H       5  MOL5        0.0298
   3114  H11       96.3460   73.9040  127.2200 H       5  MOL5        0.0697
   3115  H11       96.7290   73.0720  128.6480 H       5  MOL5        0.0697
   3116  H11      106.0370   68.8750  133.0250 H       5  MOL5        0.0230
   3117  H11      104.8620   70.0270  133.7080 H       5  MOL5        0.0230
   3118  H11      106.1110   70.6130  132.5620 H       5  MOL5        0.0230
   3119  H11       92.4950   73.6260  129.7610 H       5  MOL5        0.0411
   3120  H11       91.6900   72.8010  127.0230 H       5  MOL5        0.0238
   3121  H11       91.5330   71.9360  128.5010 H       5  MOL5        0.0238
   3122  H11       93.0120   71.7810  127.6650 H       5  MOL5        0.0238
   3123  H11       92.2150   74.8900  127.0050 H       5  MOL5        0.0273
   3124  H11       92.3750   75.8360  128.4630 H       5  MOL5        0.0273
   3125  H11       91.0540   74.1290  130.9410 H       5  MOL5        0.0240
   3126  H11       89.3180   73.7300  131.0080 H       5  MOL5        0.0240
   3127  H11       89.9160   75.1710  131.7410 H       5  MOL5        0.0240
   3128  H11       75.9940   68.3440   99.7450 H       5  MOL5        0.2951
   3129  H11       75.5870   66.4280  100.7980 H       5  MOL5        0.0377
   3130  H11       76.6290   66.1820   99.4050 H       5  MOL5        0.0377
   3131  H11       75.2680   64.4180   98.5090 H       5  MOL5        0.0270
   3132  H11       74.1360   64.3810   99.7050 H       5  MOL5        0.0270
   3133  H11       75.6740   63.6560  101.2770 H       5  MOL5        0.0266
   3134  H11       76.6560   63.3440   99.7240 H       5  MOL5        0.0266
   3135  H11       76.6530   61.4210  100.1150 H       5  MOL5        0.0276
   3136  H11       75.5160   61.4390  101.4520 H       5  MOL5        0.0276
   3137  H11       79.7720   60.3380  104.1180 H       5  MOL5        0.0385
   3138  H11       80.5140   60.8460  102.5890 H       5  MOL5        0.0385
   3139  H11       78.9310   62.7040  102.4940 H       5  MOL5        0.0284
   3140  H11       77.9980   62.1450  103.8340 H       5  MOL5        0.0284
   3141  H11       76.8900   72.2580  112.9910 H       5  MOL5        0.0276
   3142  H11       75.5960   71.4030  113.6830 H       5  MOL5        0.0276
   3143  H11       73.8090   73.4980  110.9520 H       5  MOL5        0.0240
   3144  H11       73.1610   72.5380  112.2530 H       5  MOL5        0.0240
   3145  H11       73.4640   71.8410  110.6030 H       5  MOL5        0.0240
   3146  H11       77.0360   71.7960  108.4390 H       5  MOL5        0.0735
   3147  H11       78.6450   71.6040  109.1370 H       5  MOL5        0.0735
   3148  H11       76.7620   69.3180  109.2140 H       5  MOL5        0.0765
   3149  H11       78.5090   68.9130  107.1270 H       5  MOL5        0.0266
   3150  H12       78.7490   70.6470  107.3050 H       5  MOL5        0.0266
   3151  H12       77.1630   70.0350  106.8590 H       5  MOL5        0.0266
   3152  H12       83.4790   69.0030  110.2620 H       5  MOL5        0.0421
   3153  H12       85.1520   70.4910  108.5800 H       5  MOL5        0.0284
   3154  H12       84.8460   69.0890  107.5570 H       5  MOL5        0.0284
   3155  H12       85.3090   68.4110  110.3990 H       5  MOL5        0.0385
   3156  H12       86.5850   69.4630  109.7830 H       5  MOL5        0.0385
   3157  H12       83.1810   71.2330  108.3850 H       5  MOL5        0.0276
   3158  H12       83.3310   71.1990  110.1330 H       5  MOL5        0.0276
   3159  H12       80.8410   70.3260  108.5130 H       5  MOL5        0.0266
   3160  H12       81.0740   71.8510  109.2410 H       5  MOL5        0.0266
   3161  H12       79.9140   70.6970  111.0350 H       5  MOL5        0.0270
   3162  H12       81.5920   70.4230  111.4620 H       5  MOL5        0.0270
   3163  H12       80.0440   68.4200  111.5750 H       5  MOL5        0.0377
   3164  H12       81.4730   68.0910  110.5990 H       5  MOL5        0.0377
   3165  H12       78.4900   61.3750  101.0160 H       5  MOL5        0.0412
   3166  H12       79.2340   57.9430  101.1800 H       5  MOL5        0.0341
   3167  H12       79.8280   58.9560  102.5110 H       5  MOL5        0.0341
   3168  H12       79.8410   59.5850  100.8230 H       5  MOL5        0.0341
   3169  H12       84.5870   73.8580  114.8490 H       5  MOL5        0.0540
   3170  H12       85.8530   74.9590  115.6050 H       5  MOL5        0.0540
   3171  H12       84.7730   76.7660  117.2620 H       5  MOL5        0.0280
   3172  H12       84.8790   75.4140  118.4090 H       5  MOL5        0.0280
   3173  H12       83.3380   76.2620  118.1700 H       5  MOL5        0.0280
   3174  H12       81.0160   72.4500  116.8570 H       5  MOL5        0.0735
   3175  H12       80.2360   73.3670  115.6040 H       5  MOL5        0.0735
   3176  H12       80.5690   70.8070  116.0230 H       5  MOL5        0.0765
   3177  H12       79.6550   69.8340  113.9680 H       5  MOL5        0.0266
   3178  H12       80.2540   71.1220  113.0680 H       5  MOL5        0.0266
   3179  H12       78.8830   71.3450  114.2540 H       5  MOL5        0.0266
   3180  H12       86.5110   65.8810  111.1020 H       5  MOL5        0.0421
   3181  H12       88.9100   65.4420  112.0810 H       5  MOL5        0.0284
   3182  H12       87.4630   64.5700  112.3720 H       5  MOL5        0.0284
   3183  H12       88.9430   66.1560  114.2960 H       5  MOL5        0.0385
   3184  H12       88.8990   64.4570  114.0870 H       5  MOL5        0.0385
   3185  H12       86.0660   66.9770  113.6780 H       5  MOL5        0.0276
   3186  H12       85.0090   67.0190  112.3320 H       5  MOL5        0.0276
   3187  H12       86.5190   69.3110  111.8420 H       5  MOL5        0.0266
   3188  H12       86.4370   69.1430  113.5900 H       5  MOL5        0.0266
   3189  H12       83.9050   68.6530  112.0510 H       5  MOL5        0.0270
   3190  H12       84.4160   70.3230  112.2180 H       5  MOL5        0.0270
   3191  H12       84.4410   69.9260  114.7810 H       5  MOL5        0.0377
   3192  H12       83.9860   68.2610  114.3870 H       5  MOL5        0.0377
   3193  H12       71.8510   66.6160  100.5330 H       5  MOL5        0.0540
   3194  H12       73.4610   67.3900  100.8900 H       5  MOL5        0.0540
   3195  H12       70.0380   69.6210  101.6000 H       5  MOL5        0.0280
   3196  H12       69.9360   68.1920  102.6570 H       5  MOL5        0.0280
   3197  H12       69.8130   67.9930  100.9390 H       5  MOL5        0.0280
   3198  H12       74.2750   70.0640  103.9460 H       5  MOL5        0.0735
   3199  H12       74.6760   68.3260  104.0670 H       5  MOL5        0.0735
   3200  H12       76.0370   69.8240  102.0970 H       5  MOL5        0.0765
   3201  H12       77.8060   70.9600  103.4440 H       5  MOL5        0.0266
   3202  H12       77.0840   70.5100  104.9620 H       5  MOL5        0.0266
   3203  H12       76.2280   71.6300  103.9610 H       5  MOL5        0.0266
   3204  H12       81.3130   64.0100  106.1500 H       5  MOL5        0.0421
   3205  H12       84.0620   65.0460  106.4820 H       5  MOL5        0.0284
   3206  H12       83.5020   63.7460  107.5200 H       5  MOL5        0.0284
   3207  H12       81.4900   65.4550  107.9660 H       5  MOL5        0.0385
   3208  H12       82.2800   66.4470  106.7860 H       5  MOL5        0.0385
   3209  H12       82.3390   65.0520  103.7760 H       5  MOL5        0.0276
   3210  H12       82.6750   66.1980  104.9770 H       5  MOL5        0.0276
   3211  H12       80.2070   65.5870  105.8880 H       5  MOL5        0.0266
   3212  H12       80.0040   65.0830  104.2140 H       5  MOL5        0.0266
   3213  H12       80.9420   67.5980  103.9610 H       5  MOL5        0.0270
   3214  H12       80.1060   67.7280  105.5320 H       5  MOL5        0.0270
   3215  H12       78.5820   66.4130  103.3080 H       5  MOL5        0.0377
   3216  H12       79.1890   67.9490  102.7780 H       5  MOL5        0.0377
   3217  H12       64.4190   79.0260  118.9960 H       5  MOL5        0.0263
   3218  H12       65.8190   79.9330  118.4560 H       5  MOL5        0.0263
   3219  H12       65.6720   78.1460  120.7810 H       5  MOL5        0.0265
   3220  H12       66.7100   79.5750  120.9100 H       5  MOL5        0.0265
   3221  H12       67.8700   79.0270  118.8360 H       5  MOL5        0.0265
   3222  H12       66.6210   77.9190  118.3510 H       5  MOL5        0.0265
   3223  H12       67.0210   76.3870  120.0000 H       5  MOL5        0.0265
   3224  H12       68.1720   77.5370  120.7990 H       5  MOL5        0.0265
   3225  H12       69.7350   77.2910  118.9990 H       5  MOL5        0.0265
   3226  H12       68.7770   76.0440  118.2800 H       5  MOL5        0.0265
   3227  H12       68.9100   74.6450  120.3660 H       5  MOL5        0.0265
   3228  H12       69.3300   76.0150  121.3120 H       5  MOL5        0.0265
   3229  H12       70.9920   74.1080  120.5280 H       5  MOL5        0.0265
   3230  H12       71.4140   75.6400  121.2370 H       5  MOL5        0.0265
   3231  H12       71.4810   76.1940  118.4070 H       5  MOL5        0.0265
   3232  H12       72.0740   74.5670  118.6140 H       5  MOL5        0.0265
   3233  H12       73.4600   75.5660  120.5500 H       5  MOL5        0.0266
   3234  H12       73.3920   76.9230  119.3130 H       5  MOL5        0.0266
   3235  H12       73.7390   74.9300  117.7740 H       5  MOL5        0.0298
   3236  H12       74.4310   74.0850  119.1770 H       5  MOL5        0.0298
   3237  H12       76.3810   75.1210  118.6830 H       5  MOL5        0.0697
   3238  H12       75.7120   76.7490  118.4860 H       5  MOL5        0.0697
   3239  H12       63.5440   80.8170  120.0800 H       5  MOL5        0.0230
   3240  H12       64.1810   81.3270  118.5570 H       5  MOL5        0.0230
   3241  H12       65.0160   81.7990  120.0590 H       5  MOL5        0.0230
   3242  H12       75.8640   75.4920  114.1290 H       5  MOL5        0.0411
   3243  H12       73.3570   75.5550  114.0280 H       5  MOL5        0.0238
   3244  H12       74.1050   76.6430  115.1390 H       5  MOL5        0.0238
   3245  H12       73.3940   75.3070  115.8180 H       5  MOL5        0.0238
   3246  H12       74.3820   72.8240  114.4980 H       5  MOL5        0.0273
   3247  H12       76.0770   72.9070  114.9950 H       5  MOL5        0.0273
   3248  H12       76.1970   70.2500  111.8580 H       5  MOL5        0.0240
   3249  H12       74.8550   70.1960  110.7120 H       5  MOL5        0.0240
   3250  H13       74.5100   70.2510  112.4660 H       5  MOL5        0.0240
   3251  O65       63.6300  133.1490  127.9170 O.2     6  MOL6       -0.2510
   3252  O65       65.3890  133.3760  126.6530 O.3     6  MOL6       -0.4806
   3253  C65       64.8190  132.9980  127.8270 C.2     6  MOL6        0.3047
   3254  C65       66.0040  132.5000  128.7750 C.3     6  MOL6        0.0448
   3255  C65       66.2180  131.3750  129.8900 C.3     6  MOL6       -0.0430
   3256  C65       67.4310  130.2910  130.1310 C.3     6  MOL6       -0.0515
   3257  C65       67.0560  129.1270  131.2410 C.3     6  MOL6       -0.0403
   3258  S65       67.4070  124.4070  128.4480 S.3     6  MOL6       -0.0928
   3259  C65       67.6800  125.1910  130.3290 C.3     6  MOL6        0.0050
   3260  C66       68.1500  126.5480  131.1610 C.3     6  MOL6       -0.0305
   3261  C66       71.7330  131.5420  117.6710 C.2     6  MOL6        0.3129
   3262  C66       72.5380  130.8090  116.4930 C.3     6  MOL6        0.0622
   3263  C66       72.0910  129.4550  115.9130 C.3     6  MOL6       -0.0370
   3264  C66       72.4830  131.5930  115.2120 C.3     6  MOL6       -0.0497
   3265  O66       70.5770  131.8580  117.6640 O.2     6  MOL6       -0.2502
   3266  O66       72.5810  131.7750  118.7390 O.3     6  MOL6       -0.4605
   3267  C66       72.3590  132.4310  120.0540 C.3     6  MOL6        0.1290
   3268  C66       72.8940  131.8480  121.4080 C.3     6  MOL6        0.1341
   3269  C66       71.9600  130.7470  121.7120 C.3     6  MOL6       -0.0244
   3270  C67       75.6570  127.0390  127.4860 C.3     6  MOL6        0.0162
   3271  C67       74.8390  125.6270  127.6200 C.3     6  MOL6       -0.0305
   3272  C67       74.6220  124.0790  127.2100 C.3     6  MOL6        0.0050
   3273  S67       75.9040  122.6980  127.1880 S.3     6  MOL6       -0.0928
   3274  C67       76.5470  128.2890  126.7760 C.3     6  MOL6       -0.0403
   3275  C67       77.2620  129.3120  125.7160 C.3     6  MOL6       -0.0515
   3276  C67       77.2730  130.1960  124.3560 C.3     6  MOL6       -0.0429
   3277  C67       76.4420  131.1360  123.3410 C.3     6  MOL6        0.0450
   3278  C67       75.0980  131.8980  122.9090 C.2     6  MOL6        0.3074
   3279  O67       74.2020  131.3610  122.0160 O.3     6  MOL6       -0.4582
   3280  O68       74.9590  133.0020  123.3200 O.2     6  MOL6       -0.2508
   3281  C68       67.1180  127.4710  131.7950 C.3     6  MOL6        0.0162
   3282  C68       75.8260  124.5760  114.8130 C.2     6  MOL6        0.3344
   3283  C68       77.0850  123.9910  114.1690 C.2     6  MOL6        0.0264
   3284  C68       77.7490  122.9490  114.6900 C.2     6  MOL6       -0.0890
   3285  C68       77.7480  124.5660  112.9460 C.3     6  MOL6       -0.0335
   3286  O68       75.2640  125.4900  114.2650 O.2     6  MOL6       -0.2453
   3287  O68       75.3550  124.0710  115.9990 O.3     6  MOL6       -0.4577
   3288  C68       74.4750  124.4380  117.1480 C.3     6  MOL6        0.1293
   3289  C68       74.8090  124.7840  118.6850 C.3     6  MOL6        0.1341
   3290  C69       73.3530  124.6500  119.2210 C.3     6  MOL6       -0.0244
   3291  C69       76.4590  120.0390  125.8940 C.3     6  MOL6        0.0162
   3292  C69       77.4970  119.3160  126.7490 C.3     6  MOL6       -0.0313
   3293  C69       78.5260  118.8180  125.7670 C.3     6  MOL6       -0.0056
   3294  S69       80.1940  119.3550  126.0620 S.3     6  MOL6       -0.1641
   3295  C69       76.2340  119.3640  124.3720 C.3     6  MOL6       -0.0403
   3296  C69       76.4570  119.8450  122.7610 C.3     6  MOL6       -0.0515
   3297  C69       76.8920  120.7350  121.3800 C.3     6  MOL6       -0.0429
   3298  C69       77.3980  122.0170  120.3510 C.3     6  MOL6        0.0450
   3299  C69       77.3140  123.6850  119.9910 C.2     6  MOL6        0.3074
   3300  O70       76.1660  124.4370  119.4360 O.3     6  MOL6       -0.4582
   3301  O70       78.2810  124.3500  120.1520 O.2     6  MOL6       -0.2508
   3302  C70       81.0110  119.1230  124.4330 C.3     6  MOL6       -0.0181
   3303  S70       75.0950  120.7820  126.9170 S.3     6  MOL6       -0.0897
   3304  C70       66.2060  136.7860  125.4880 C.2     6  MOL6        0.3344
   3305  C70       66.2850  138.0200  126.2460 C.2     6  MOL6        0.0264
   3306  C70       67.4200  138.2800  126.9250 C.2     6  MOL6       -0.0890
   3307  C70       65.1420  138.9620  126.1270 C.3     6  MOL6       -0.0335
   3308  O70       65.2120  136.4130  124.9080 O.2     6  MOL6       -0.2453
   3309  O70       67.3260  136.0470  125.3840 O.3     6  MOL6       -0.4577
   3310  C71       67.7540  135.7100  124.0860 C.3     6  MOL6        0.1293
   3311  C71       67.0110  134.5970  123.4390 C.3     6  MOL6        0.1341
   3312  C71       67.6760  134.2510  122.1130 C.3     6  MOL6       -0.0244
   3313  S71       67.7320  125.3830  126.5940 S.3     6  MOL6       -0.0897
   3314  C71       68.3440  127.2280  126.4960 C.3     6  MOL6        0.0162
   3315  C71       69.4010  128.1880  127.2810 C.3     6  MOL6       -0.0305
   3316  C71       70.8370  128.4320  128.0020 C.3     6  MOL6        0.0050
   3317  S71       72.6450  128.2490  128.3950 S.3     6  MOL6       -0.0928
   3318  C71       68.0420  127.4720  125.0230 C.3     6  MOL6       -0.0403
   3319  C71       67.8410  128.9070  124.4930 C.3     6  MOL6       -0.0515
   3320  C72       66.6270  129.8240  124.1720 C.3     6  MOL6       -0.0429
   3321  C72       66.3250  131.2690  124.6650 C.3     6  MOL6        0.0450
   3322  C72       67.2830  132.4400  124.5510 C.2     6  MOL6        0.3074
   3323  O72       66.5240  133.5050  124.2330 O.3     6  MOL6       -0.4582
   3324  O72       68.4670  132.4470  124.6280 O.2     6  MOL6       -0.2508
   3325  S72       74.5880  127.9570  128.7310 S.3     6  MOL6       -0.0897
   3326  C72       76.0570  127.8640  100.5580 C.3     6  MOL6       -0.0559
   3327  C72       76.2770  128.0400  102.0400 C.3     6  MOL6       -0.0533
   3328  C72       76.9160  127.0300  102.9980 C.3     6  MOL6       -0.0531
   3329  C72       76.8050  127.6830  104.3810 C.3     6  MOL6       -0.0531
   3330  C73       77.7690  127.5570  105.5610 C.3     6  MOL6       -0.0531
   3331  C73       77.6660  128.8360  106.4390 C.3     6  MOL6       -0.0531
   3332  C73       77.2310  128.5030  107.8570 C.3     6  MOL6       -0.0531
   3333  C73       76.0340  129.1890  108.5110 C.3     6  MOL6       -0.0530
   3334  C73       75.9620  128.5520  109.8870 C.3     6  MOL6       -0.0500
   3335  C73       74.7330  128.1850  110.6740 C.3     6  MOL6       -0.0185
   3336  C73       75.2050  127.7960  112.0320 C.3     6  MOL6        0.0925
   3337  C73       75.4440  129.1690  100.0240 C.3     6  MOL6       -0.0653
   3338  C73       72.5040  127.3950  114.3820 C.3     6  MOL6        0.0537
   3339  C73       73.2450  127.0440  113.1200 C.2     6  MOL6        0.3099
   3340  O74       74.1770  128.0040  112.9750 O.3     6  MOL6       -0.4644
   3341  O74       73.2000  126.1090  112.3590 O.2     6  MOL6       -0.2505
   3342  C74       71.0350  127.0380  114.6720 C.3     6  MOL6       -0.0523
   3343  C74       72.8940  128.8650  114.7460 C.3     6  MOL6       -0.0394
   3344  C74       73.9920  130.7760  116.8300 C.3     6  MOL6       -0.0497
   3345  O74       66.4680  121.5740  150.7360 O.2     6  MOL6       -0.2510
   3346  O74       64.5440  120.9990  149.7030 O.3     6  MOL6       -0.4806
   3347  C74       65.4640  121.8840  150.1740 C.2     6  MOL6        0.3047
   3348  C74       65.0600  123.2760  149.7560 C.3     6  MOL6        0.0448
   3349  C74       65.3840  124.4770  150.6700 C.3     6  MOL6       -0.0430
   3350  C75       66.1260  125.4810  149.8170 C.3     6  MOL6       -0.0515
   3351  C75       66.1830  126.9680  150.1210 C.3     6  MOL6       -0.0403
   3352  S75       66.4050  128.5030  145.3100 S.3     6  MOL6       -0.0928
   3353  C75       67.4120  127.8850  146.6310 C.3     6  MOL6        0.0050
   3354  C75       66.6230  127.1770  147.6770 C.3     6  MOL6       -0.0305
   3355  C75       72.2980  123.2460  136.1210 C.2     6  MOL6        0.3129
   3356  C75       72.8630  121.9690  136.7690 C.3     6  MOL6        0.0622
   3357  C75       72.2070  121.8340  138.1260 C.3     6  MOL6       -0.0370
   3358  C75       72.1810  120.8520  135.9810 C.3     6  MOL6       -0.0497
   3359  O75       71.7140  123.1520  135.0790 O.2     6  MOL6       -0.2502
   3360  O76       72.3700  124.4360  136.8530 O.3     6  MOL6       -0.4605
   3361  C76       73.6100  125.0360  137.2710 C.3     6  MOL6        0.1290
   3362  C76       73.7040  126.5000  137.7170 C.3     6  MOL6        0.1341
   3363  C76       73.2160  127.8020  137.0950 C.3     6  MOL6       -0.0244
   3364  C76       68.3990  129.3590  138.7570 C.3     6  MOL6        0.0162
   3365  C76       68.2030  130.4500  137.4850 C.3     6  MOL6       -0.0305
   3366  C76       67.7920  131.3470  136.1500 C.3     6  MOL6        0.0050
   3367  S76       66.7470  131.3340  134.6230 S.3     6  MOL6       -0.0928
   3368  C76       69.7890  128.7380  138.8270 C.3     6  MOL6       -0.0403
   3369  C76       69.8540  127.2970  139.4770 C.3     6  MOL6       -0.0515
   3370  C77       70.9220  126.7740  140.4930 C.3     6  MOL6       -0.0429
   3371  C77       72.2820  127.4010  140.8630 C.3     6  MOL6        0.0450
   3372  C77       73.4020  127.3150  139.9480 C.2     6  MOL6        0.3074
   3373  O77       72.9710  126.5540  138.9370 O.3     6  MOL6       -0.4582
   3374  O77       74.4940  127.8260  140.0430 O.2     6  MOL6       -0.2508
   3375  S77       65.8260  129.4540  148.9480 S.3     6  MOL6       -0.0897
   3376  C77       66.7340  127.8660  149.0130 C.3     6  MOL6        0.0162
   3377  C77       61.0600  135.8410  130.0970 C.2     6  MOL6        0.3344
   3378  C77       60.3800  136.6630  129.1360 C.2     6  MOL6        0.0264
   3379  C77       61.0920  137.3460  128.2280 C.2     6  MOL6       -0.0890
   3380  C78       58.9160  136.6910  129.3140 C.3     6  MOL6       -0.0335
   3381  O78       60.5600  135.5310  131.1570 O.2     6  MOL6       -0.2453
   3382  O78       62.2820  135.4080  129.7390 O.3     6  MOL6       -0.4577
   3383  C78       63.0750  134.8870  130.7670 C.3     6  MOL6        0.1293
   3384  C78       63.3840  133.4510  130.7790 C.3     6  MOL6        0.1341
   3385  C78       64.6280  133.4020  131.7820 C.3     6  MOL6       -0.0244
   3386  C78       64.8160  128.6930  134.0670 C.3     6  MOL6        0.0162
   3387  C78       64.5040  127.3460  134.7730 C.3     6  MOL6       -0.0305
   3388  C78       63.7410  126.2770  134.0520 C.3     6  MOL6        0.0050
   3389  S78       64.8870  125.1260  133.3610 S.3     6  MOL6       -0.0928
   3390  C79       63.6900  129.6830  134.1820 C.3     6  MOL6       -0.0403
   3391  C79       62.4960  129.1340  133.2870 C.3     6  MOL6       -0.0515
   3392  C79       61.1200  129.7480  132.6450 C.3     6  MOL6       -0.0429
   3393  C79       60.6440  130.6980  131.3670 C.3     6  MOL6        0.0450
   3394  C79       61.0010  132.1990  130.8840 C.2     6  MOL6        0.3074
   3395  O79       62.3340  132.3910  130.5920 O.3     6  MOL6       -0.4582
   3396  O79       60.1520  133.0420  130.8820 O.2     6  MOL6       -0.2508
   3397  S79       65.5300  126.5140  132.0070 S.3     6  MOL6       -0.0897
   3398  S79       66.5400  129.4180  133.9680 S.3     6  MOL6       -0.0897
   3399  C79       69.0900  125.2040  148.6380 C.2     6  MOL6        0.3344
   3400  C80       69.0370  125.5440  150.0660 C.2     6  MOL6        0.0264
   3401  C80       69.4240  126.7820  150.2860 C.2     6  MOL6       -0.0890
   3402  C80       68.4880  124.7100  151.1960 C.3     6  MOL6       -0.0335
   3403  O80       68.5850  124.1920  148.2270 O.2     6  MOL6       -0.2453
   3404  O80       69.7240  126.0140  147.7150 O.3     6  MOL6       -0.4577
   3405  C80       70.1570  125.2450  146.6000 C.3     6  MOL6        0.1293
   3406  C80       69.3330  125.2840  145.3910 C.3     6  MOL6        0.1341
   3407  C80       70.1860  124.7510  144.2210 C.3     6  MOL6       -0.0244
   3408  S80       64.8040  129.4300  146.1950 S.3     6  MOL6       -0.0897
   3409  C80       63.9070  129.4800  144.6220 C.3     6  MOL6        0.0162
   3410  C81       64.6940  130.5350  143.7930 C.3     6  MOL6       -0.0305
   3411  C81       65.1980  130.3130  142.3780 C.3     6  MOL6        0.0050
   3412  S81       66.9520  129.7280  142.3710 S.3     6  MOL6       -0.0928
   3413  C81       63.7810  128.0440  144.1080 C.3     6  MOL6       -0.0403
   3414  C81       63.5590  126.8740  145.1040 C.3     6  MOL6       -0.0515
   3415  C81       64.3990  125.5500  144.9170 C.3     6  MOL6       -0.0429
   3416  C81       65.6680  124.6620  145.1260 C.3     6  MOL6        0.0450
   3417  C81       67.1000  124.9210  144.7290 C.2     6  MOL6        0.3074
   3418  O81       67.9820  124.8870  145.7470 O.3     6  MOL6       -0.4582
   3419  O81       67.4760  124.9410  143.5980 O.2     6  MOL6       -0.2508
   3420  S82       68.1640  129.3590  140.7000 S.3     6  MOL6       -0.0897
   3421  C82       79.2470  110.5550  145.8340 C.3     6  MOL6       -0.0559
   3422  C82       78.0390  110.8380  144.9850 C.3     6  MOL6       -0.0533
   3423  C82       77.3350  112.0630  145.5540 C.3     6  MOL6       -0.0531
   3424  C82       77.5890  113.2560  144.6330 C.3     6  MOL6       -0.0531
   3425  C82       77.0910  114.6730  145.0210 C.3     6  MOL6       -0.0531
   3426  C82       76.5870  115.2170  143.7190 C.3     6  MOL6       -0.0531
   3427  C82       75.6780  116.3500  143.3120 C.3     6  MOL6       -0.0531
   3428  C82       75.5290  117.7880  143.7060 C.3     6  MOL6       -0.0530
   3429  C82       74.1720  118.0770  144.2870 C.3     6  MOL6       -0.0500
   3430  C83       72.9890  117.5840  143.4490 C.3     6  MOL6       -0.0185
   3431  C83       73.1950  117.4120  141.9500 C.3     6  MOL6        0.0925
   3432  C83       80.0920  109.4350  145.3560 C.3     6  MOL6       -0.0653
   3433  C83       73.2820  120.0950  139.5270 C.3     6  MOL6        0.0537
   3434  C83       73.3100  118.6650  139.9480 C.2     6  MOL6        0.3099
   3435  O83       73.3730  118.6580  141.2960 O.3     6  MOL6       -0.4644
   3436  O83       73.2780  117.6770  139.2470 O.2     6  MOL6       -0.2505
   3437  C83       73.2390  121.1370  140.6450 C.3     6  MOL6       -0.0523
   3438  C83       72.0720  120.4120  138.6820 C.3     6  MOL6       -0.0394
   3439  C83       74.3870  121.9380  136.6860 C.3     6  MOL6       -0.0497
   3440  O84       49.8150  144.4010  153.1670 O.2     6  MOL6       -0.2510
   3441  O84       49.7900  142.3530  152.2410 O.3     6  MOL6       -0.4806
   3442  C84       50.2980  143.3200  153.0650 C.2     6  MOL6        0.3047
   3443  C84       51.5600  142.8080  153.7560 C.3     6  MOL6        0.0448
   3444  C84       52.1880  143.7930  154.8110 C.3     6  MOL6       -0.0430
   3445  C84       53.5640  143.6640  155.6640 C.3     6  MOL6       -0.0516
   3446  C84       54.9460  143.4880  156.5100 C.3     6  MOL6       -0.0411
   3447  S84       57.6240  138.9070  155.9240 S.3     6  MOL6       -0.0928
   3448  C84       57.6730  140.2420  157.1730 C.3     6  MOL6        0.0049
   3449  C84       56.8160  141.2910  156.4220 C.3     6  MOL6       -0.0313
   3450  C85       57.1210  138.4720  143.4670 C.2     6  MOL6        0.3129
   3451  C85       58.2450  139.1500  142.7240 C.3     6  MOL6        0.0622
   3452  C85       59.3500  138.2970  142.0400 C.3     6  MOL6       -0.0370
   3453  C85       57.6100  140.2990  142.0330 C.3     6  MOL6       -0.0497
   3454  O85       55.9390  138.6600  143.3110 O.2     6  MOL6       -0.2502
   3455  O85       57.6680  137.7270  144.4690 O.3     6  MOL6       -0.4605
   3456  C85       56.8370  137.6170  145.6100 C.3     6  MOL6        0.1290
   3457  C85       57.3860  138.1420  146.8760 C.3     6  MOL6        0.1341
   3458  C85       56.2000  138.0290  147.8090 C.3     6  MOL6       -0.0244
   3459  C85       58.4540  133.0300  149.4010 C.3     6  MOL6        0.0162
   3460  C86       58.0190  131.8210  150.2250 C.3     6  MOL6       -0.0305
   3461  C86       59.2480  131.0610  150.6780 C.3     6  MOL6        0.0050
   3462  S86       59.6430  130.8890  152.4010 S.3     6  MOL6       -0.0928
   3463  C86       57.7000  133.0490  148.1140 C.3     6  MOL6       -0.0403
   3464  C86       57.5850  134.3830  147.3960 C.3     6  MOL6       -0.0515
   3465  C86       58.9630  134.8700  146.9400 C.3     6  MOL6       -0.0429
   3466  C86       59.7170  135.6970  147.9820 C.3     6  MOL6        0.0450
   3467  C86       58.8180  136.8070  148.3810 C.2     6  MOL6        0.3074
   3468  O86       58.4480  137.2560  147.1750 O.3     6  MOL6       -0.4582
   3469  O86       58.4850  137.2290  149.4610 O.2     6  MOL6       -0.2508
   3470  S87       56.9300  143.2330  158.4570 S.3     6  MOL6       -0.1607
   3471  C87       56.0150  142.4430  157.1090 C.3     6  MOL6        0.0058
   3472  C87       57.2370  141.9020  159.5880 C.3     6  MOL6       -0.0178
   3473  C87       61.8530  130.8440  141.5360 C.2     6  MOL6        0.3344
   3474  C87       61.6410  129.3930  141.5480 C.2     6  MOL6        0.0264
   3475  C87       61.1220  128.8450  142.6540 C.2     6  MOL6       -0.0890
   3476  C87       62.0470  128.5850  140.3460 C.3     6  MOL6       -0.0335
   3477  O87       62.3940  131.3530  140.5800 O.2     6  MOL6       -0.2453
   3478  O87       61.4910  131.6290  142.6120 O.3     6  MOL6       -0.4577
   3479  C87       61.9060  132.9980  142.4970 C.3     6  MOL6        0.1293
   3480  C88       62.0900  133.7240  143.8160 C.3     6  MOL6        0.1341
   3481  C88       61.3060  135.0060  144.2460 C.3     6  MOL6       -0.0244
   3482  C88       62.4670  130.4740  151.5720 C.3     6  MOL6        0.0162
   3483  C88       63.7460  129.9480  152.2870 C.3     6  MOL6       -0.0305
   3484  C88       65.0890  129.4820  151.7640 C.3     6  MOL6        0.0050
   3485  S88       66.1700  130.4390  150.6720 S.3     6  MOL6       -0.0928
   3486  C88       62.6500  130.9940  150.1320 C.3     6  MOL6       -0.0403
   3487  C88       61.8400  130.4430  148.9650 C.3     6  MOL6       -0.0515
   3488  C88       61.4370  131.5710  148.0270 C.3     6  MOL6       -0.0429
   3489  C88       62.5550  131.9110  147.0750 C.3     6  MOL6        0.0450
   3490  C89       62.1210  133.0680  146.2230 C.2     6  MOL6        0.3074
   3491  O89       62.2520  132.7550  144.8970 O.3     6  MOL6       -0.4582
   3492  O89       61.7410  134.1060  146.6920 O.2     6  MOL6       -0.2508
   3493  S89       60.9960  129.4640  151.9260 S.3     6  MOL6       -0.0897
   3494  C89       51.4920  143.7860  148.8500 C.2     6  MOL6        0.3344
   3495  C89       51.4260  145.0980  149.4770 C.2     6  MOL6        0.0264
   3496  C89       51.5070  145.0380  150.7990 C.2     6  MOL6       -0.0890
   3497  C89       51.3050  146.3780  148.7230 C.3     6  MOL6       -0.0335
   3498  O89       51.2650  143.6180  147.6710 O.2     6  MOL6       -0.2453
   3499  O89       51.8630  142.7210  149.6500 O.3     6  MOL6       -0.4577
   3500  C90       52.8340  141.8360  149.0930 C.3     6  MOL6        0.1293
   3501  C90       52.5360  140.4570  149.5640 C.3     6  MOL6        0.1341
   3502  C90       52.6300  139.2850  148.5500 C.3     6  MOL6       -0.0244
   3503  S90       58.2180  136.9980  156.4380 S.3     6  MOL6       -0.0897
   3504  C90       58.1810  136.5920  154.6680 C.3     6  MOL6        0.0162
   3505  C90       59.0360  135.4530  154.1170 C.3     6  MOL6       -0.0305
   3506  C90       58.9360  135.5650  152.6120 C.3     6  MOL6        0.0050
   3507  S90       59.6250  134.1920  151.6960 S.3     6  MOL6       -0.0928
   3508  C90       56.7430  136.5040  154.1810 C.3     6  MOL6       -0.0403
   3509  C90       56.4560  137.6810  153.2390 C.3     6  MOL6       -0.0515
   3510  C91       55.3980  137.5410  152.1590 C.3     6  MOL6       -0.0429
   3511  C91       54.4360  138.7190  152.0100 C.3     6  MOL6        0.0450
   3512  C91       54.2930  139.5300  150.7510 C.2     6  MOL6        0.3074
   3513  O91       53.0640  140.0860  150.8410 O.3     6  MOL6       -0.4582
   3514  O91       55.0110  139.7060  149.8080 O.2     6  MOL6       -0.2508
   3515  S91       58.1920  134.5180  150.3110 S.3     6  MOL6       -0.0897
   3516  C91       59.5180  144.2380  129.0210 C.3     6  MOL6       -0.0559
   3517  C91       60.7630  143.5280  129.5080 C.3     6  MOL6       -0.0533
   3518  C91       60.3780  143.0240  130.9020 C.3     6  MOL6       -0.0531
   3519  C91       61.6060  142.7810  131.6920 C.3     6  MOL6       -0.0531
   3520  C92       61.5460  142.0120  132.9710 C.3     6  MOL6       -0.0531
   3521  C92       63.0150  141.7620  133.3090 C.3     6  MOL6       -0.0531
   3522  C92       63.3790  140.5630  134.1710 C.3     6  MOL6       -0.0531
   3523  C92       62.3010  139.7950  134.9420 C.3     6  MOL6       -0.0530
   3524  C92       62.5520  138.3180  135.0260 C.3     6  MOL6       -0.0500
   3525  C92       62.3950  137.8420  136.4340 C.3     6  MOL6       -0.0185
   3526  C92       61.8060  136.4880  136.7170 C.3     6  MOL6        0.0925
   3527  C92       58.9510  144.3750  127.6340 C.3     6  MOL6       -0.0653
   3528  C92       59.3110  137.5700  139.1250 C.3     6  MOL6        0.0537
   3529  C92       60.3060  136.5450  138.6910 C.2     6  MOL6        0.3099
   3530  O93       60.6400  136.8550  137.4370 O.3     6  MOL6       -0.4644
   3531  O93       60.7110  135.6140  139.3310 O.2     6  MOL6       -0.2505
   3532  C93       58.9270  138.4720  137.9210 C.3     6  MOL6       -0.0523
   3533  C93       59.7630  138.1840  140.5340 C.3     6  MOL6       -0.0394
   3534  C93       59.0240  139.7440  143.8730 C.3     6  MOL6       -0.0497
   3535 5H93       66.3450  133.3490  126.7180 H       6  MOL6        0.2951
   3536 6H93       66.1220  133.4410  129.2940 H       6  MOL6        0.0377
   3537 7H93       66.7590  132.4700  128.0210 H       6  MOL6        0.0377
   3538 8H93       65.2850  130.8660  129.9690 H       6  MOL6        0.0270
   3539 9H93       66.3000  131.9210  130.8440 H       6  MOL6        0.0270
   3540 0H94       68.1150  130.9160  130.7370 H       6  MOL6        0.0266
   3541 1H94       68.1280  130.0330  129.3450 H       6  MOL6        0.0266
   3542 2H94       66.2120  129.6230  131.7050 H       6  MOL6        0.0276
   3543 3H94       67.9670  129.3520  131.8340 H       6  MOL6        0.0276
   3544 4H94       68.3460  124.4130  130.6780 H       6  MOL6        0.0385
   3545 5H94       66.7480  124.9290  130.7810 H       6  MOL6        0.0385
   3546 6H94       68.9020  127.3030  130.8740 H       6  MOL6        0.0284
   3547 7H94       68.6250  126.0680  132.0060 H       6  MOL6        0.0284
   3548 8H94       71.0550  129.6390  115.6660 H       6  MOL6        0.0276
   3549 9H94       72.0730  128.5640  116.5160 H       6  MOL6        0.0276
   3550 0H95       71.9860  132.5210  115.3090 H       6  MOL6        0.0240
   3551 1H95       71.9670  131.1300  114.3860 H       6  MOL6        0.0240
   3552 2H95       73.4830  131.7840  114.8460 H       6  MOL6        0.0240
   3553 3H95       72.6550  133.4830  120.0100 H       6  MOL6        0.0735
   3554 4H95       71.2670  132.4770  120.2290 H       6  MOL6        0.0735
   3555 5H95       72.5230  132.5940  122.0750 H       6  MOL6        0.0765
   3556 6H95       72.3170  130.4540  122.6770 H       6  MOL6        0.0266
   3557 7H95       71.9590  129.8300  121.1460 H       6  MOL6        0.0266
   3558 8H95       70.9640  131.1600  121.6330 H       6  MOL6        0.0266
   3559 9H95       76.3900  126.9220  128.3130 H       6  MOL6        0.0421
   3560 0H96       73.7710  125.9100  127.5220 H       6  MOL6        0.0284
   3561 1H96       74.9550  125.5720  128.7110 H       6  MOL6        0.0284
   3562 2H96       73.9770  123.9750  126.3330 H       6  MOL6        0.0385
   3563 3H96       73.9100  123.8860  127.9990 H       6  MOL6        0.0385
   3564 4H96       75.8330  129.0180  127.1010 H       6  MOL6        0.0276
   3565 5H96       77.2890  128.4220  127.5740 H       6  MOL6        0.0276
   3566 6H96       78.2520  128.8530  125.5250 H       6  MOL6        0.0266
   3567 7H96       77.4670  130.0780  126.4840 H       6  MOL6        0.0266
   3568 8H96       77.8490  129.5680  123.6420 H       6  MOL6        0.0270
   3569 9H96       78.0470  130.9190  124.6740 H       6  MOL6        0.0270
   3570 0H97       77.1840  131.2590  122.5350 H       6  MOL6        0.0377
   3571 1H97       76.6700  132.0180  123.9620 H       6  MOL6        0.0377
   3572 2H97       67.6020  127.6400  132.7660 H       6  MOL6        0.0421
   3573 3H97       78.6990  122.6210  114.2710 H       6  MOL6        0.0540
   3574 4H97       77.4840  122.4690  115.6250 H       6  MOL6        0.0540
   3575 5H97       77.8960  123.7930  112.1840 H       6  MOL6        0.0280
   3576 6H97       78.7690  124.8640  113.1860 H       6  MOL6        0.0280
   3577 7H97       77.2230  125.4470  112.5710 H       6  MOL6        0.0280
   3578 8H97       73.7540  125.1840  116.8140 H       6  MOL6        0.0735
   3579 9H97       73.9460  123.4850  117.2640 H       6  MOL6        0.0735
   3580 0H98       74.9980  125.8120  118.8370 H       6  MOL6        0.0765
   3581 1H98       72.7290  125.2020  118.4960 H       6  MOL6        0.0266
   3582 2H98       73.1040  125.1320  120.1680 H       6  MOL6        0.0266
   3583 3H98       72.9330  123.6370  119.2470 H       6  MOL6        0.0266
   3584 4H98       77.0780  120.9160  125.9390 H       6  MOL6        0.0421
   3585 5H98       77.0780  118.4870  127.2920 H       6  MOL6        0.0284
   3586 6H98       77.9380  120.0170  127.4800 H       6  MOL6        0.0284
   3587 7H98       78.3820  119.2920  124.7940 H       6  MOL6        0.0377
   3588 8H98       78.3300  117.7480  125.7120 H       6  MOL6        0.0377
   3589 9H98       76.7750  118.4020  124.3810 H       6  MOL6        0.0276
   3590 0H99       75.2170  118.9930  124.2400 H       6  MOL6        0.0276
   3591 1H99       75.4050  120.1160  122.6410 H       6  MOL6        0.0266
   3592 2H99       76.4820  118.8530  122.2620 H       6  MOL6        0.0266
   3593 3H99       75.9450  120.4620  120.8610 H       6  MOL6        0.0270
   3594 4H99       77.3750  119.9120  120.9290 H       6  MOL6        0.0270
   3595 5H99       77.4650  121.4620  119.4450 H       6  MOL6        0.0377
   3596 6H99       78.4150  122.2220  120.6120 H       6  MOL6        0.0377
   3597 7H99       81.6820  118.2580  124.3370 H       6  MOL6        0.0340
   3598 8H99       81.6670  119.9570  124.2130 H       6  MOL6        0.0340
   3599 9H99       80.2860  119.1060  123.6270 H       6  MOL6        0.0340
   3600  H10       67.5490  139.1790  127.5150 H       6  MOL6        0.0540
   3601  H10       68.2820  137.6230  126.8860 H       6  MOL6        0.0540
   3602  H10       64.2950  138.5850  126.6980 H       6  MOL6        0.0280
   3603  H10       64.8040  139.1270  125.0970 H       6  MOL6        0.0280
   3604  H10       65.4580  139.9400  126.5030 H       6  MOL6        0.0280
   3605  H10       67.6440  136.5660  123.4130 H       6  MOL6        0.0735
   3606  H10       68.8360  135.5910  124.1650 H       6  MOL6        0.0735
   3607  H10       66.0620  135.0570  123.1750 H       6  MOL6        0.0765
   3608  H10       67.2690  133.3770  121.6070 H       6  MOL6        0.0266
   3609  H10       68.7570  134.1030  122.2000 H       6  MOL6        0.0266
   3610  H10       67.5110  135.1010  121.4540 H       6  MOL6        0.0266
   3611  H10       67.5670  127.9100  126.7260 H       6  MOL6        0.0421
   3612  H10       69.3980  128.9320  126.5110 H       6  MOL6        0.0284
   3613  H10       68.7960  128.6160  128.0910 H       6  MOL6        0.0284
   3614  H10       70.6150  128.4430  129.0760 H       6  MOL6        0.0385
   3615  H10       70.9580  129.5210  128.0740 H       6  MOL6        0.0385
   3616  H10       67.1160  126.9820  124.9240 H       6  MOL6        0.0276
   3617  H10       68.6510  126.8510  124.3580 H       6  MOL6        0.0276
   3618  H10       68.2490  128.7400  123.5180 H       6  MOL6        0.0266
   3619  H10       68.5030  129.5260  125.0350 H       6  MOL6        0.0266
   3620  H10       65.6640  129.3260  124.2370 H       6  MOL6        0.0270
   3621  H10       66.7250  129.9640  123.0970 H       6  MOL6        0.0270
   3622  H10       65.7830  131.4090  125.5920 H       6  MOL6        0.0377
   3623  H10       65.5270  131.6020  124.0340 H       6  MOL6        0.0377
   3624  H10       75.3580  127.0510  100.4110 H       6  MOL6        0.0263
   3625  H10       76.9500  127.5520  100.0210 H       6  MOL6        0.0263
   3626  H10       75.2680  128.1910  102.3870 H       6  MOL6        0.0265
   3627  H10       76.7980  128.9960  102.1720 H       6  MOL6        0.0265
   3628  H10       77.9420  126.8290  102.7180 H       6  MOL6        0.0265
   3629  H10       76.3990  126.0590  102.9890 H       6  MOL6        0.0265
   3630  H10       75.8350  127.3630  104.7500 H       6  MOL6        0.0265
   3631  H10       76.7330  128.7600  104.2030 H       6  MOL6        0.0265
   3632  H10       78.8090  127.4430  105.2760 H       6  MOL6        0.0265
   3633  H10       77.5540  126.6400  106.1340 H       6  MOL6        0.0265
   3634  H10       77.0120  129.5990  105.9930 H       6  MOL6        0.0265
   3635  H10       78.6490  129.3220  106.4910 H       6  MOL6        0.0265
   3636  H10       78.0960  128.6460  108.5160 H       6  MOL6        0.0265
   3637  H10       76.9930  127.4280  107.8860 H       6  MOL6        0.0265
   3638  H10       75.1080  128.9960  107.9860 H       6  MOL6        0.0265
   3639  H10       76.1430  130.2830  108.5510 H       6  MOL6        0.0265
   3640  H10       76.5820  129.1430  110.5480 H       6  MOL6        0.0266
   3641  H10       76.4670  127.5910  109.8050 H       6  MOL6        0.0266
   3642  H10       74.2280  127.3280  110.2410 H       6  MOL6        0.0298
   3643  H10       74.0000  128.9710  110.8630 H       6  MOL6        0.0298
   3644  H10       75.9670  128.5140  112.3000 H       6  MOL6        0.0697
   3645  H10       75.6320  126.7910  112.1040 H       6  MOL6        0.0697
   3646  H10       76.0200  130.0470  100.3270 H       6  MOL6        0.0230
   3647  H10       74.4240  129.3040  100.3960 H       6  MOL6        0.0230
   3648  H10       75.3730  129.2250   98.9370 H       6  MOL6        0.0230
   3649  H10       73.0330  126.6960  115.0390 H       6  MOL6        0.0411
   3650  H10       70.4270  126.8740  113.7950 H       6  MOL6        0.0238
   3651  H10       70.5230  127.7990  115.2610 H       6  MOL6        0.0238
   3652  H10       70.9500  126.1620  115.3200 H       6  MOL6        0.0238
   3653  H10       72.8140  129.4690  113.8520 H       6  MOL6        0.0273
   3654  H10       73.9630  128.8620  114.9610 H       6  MOL6        0.0273
   3655  H10       74.5070  130.0460  116.2130 H       6  MOL6        0.0240
   3656  H10       74.1890  130.5220  117.8540 H       6  MOL6        0.0240
   3657  H10       74.4060  131.7460  116.6280 H       6  MOL6        0.0240
   3658  H10       63.8130  121.4760  149.3070 H       6  MOL6        0.2951
   3659  H10       63.9970  123.2770  149.5370 H       6  MOL6        0.0377
   3660  H10       65.6110  123.3560  148.8100 H       6  MOL6        0.0377
   3661  H10       65.9590  124.2100  151.5660 H       6  MOL6        0.0270
   3662  H10       64.4480  124.9160  151.0150 H       6  MOL6        0.0270
   3663  H10       65.6580  125.5140  148.8580 H       6  MOL6        0.0266
   3664  H10       67.0200  124.9750  149.5390 H       6  MOL6        0.0266
   3665  H10       66.6030  127.2710  151.0710 H       6  MOL6        0.0276
   3666  H10       65.1310  127.2060  150.1090 H       6  MOL6        0.0276
   3667  H10       68.1340  128.5730  147.0700 H       6  MOL6        0.0385
   3668  H10       67.9830  127.1270  146.1170 H       6  MOL6        0.0385
   3669  H10       67.0440  126.1650  147.7180 H       6  MOL6        0.0284
   3670  H10       65.5740  127.0660  147.3990 H       6  MOL6        0.0284
   3671  H10       71.1960  122.2440  138.0440 H       6  MOL6        0.0276
   3672  H10       72.7500  122.4460  138.8250 H       6  MOL6        0.0276
   3673  H10       71.1250  120.8820  136.2810 H       6  MOL6        0.0240
   3674  H10       72.5170  119.8280  136.1670 H       6  MOL6        0.0240
   3675  H10       72.2480  121.0310  134.9090 H       6  MOL6        0.0240
   3676  H10       74.4070  124.7960  136.5640 H       6  MOL6        0.0735
   3677  H10       73.8980  124.5400  138.1900 H       6  MOL6        0.0735
   3678  H10       74.7810  126.6510  137.8990 H       6  MOL6        0.0765
   3679  H10       73.6900  128.6130  137.6700 H       6  MOL6        0.0266
   3680  H10       72.1370  127.9010  137.2540 H       6  MOL6        0.0266
   3681  H10       73.4160  128.0030  136.0530 H       6  MOL6        0.0266
   3682  H10       67.7190  128.5510  138.6460 H       6  MOL6        0.0421
   3683  H10       69.0110  131.1420  137.5740 H       6  MOL6        0.0284
   3684  H10       67.1910  130.6800  137.7560 H       6  MOL6        0.0284
   3685  H10       68.6890  131.8950  135.8630 H       6  MOL6        0.0385
   3686  H10       67.3190  132.2080  136.6580 H       6  MOL6        0.0385
   3687  H10       70.3740  129.4090  139.4170 H       6  MOL6        0.0276
   3688  H10       70.2230  128.8470  137.8320 H       6  MOL6        0.0276
   3689  H10       69.7260  126.4640  138.7770 H       6  MOL6        0.0266
   3690  H10       68.9370  127.1400  140.0340 H       6  MOL6        0.0266
   3691  H10       71.0260  125.7090  140.2590 H       6  MOL6        0.0270
   3692  H10       70.4000  126.7110  141.4510 H       6  MOL6        0.0270
   3693  H10       72.5770  127.0060  141.8390 H       6  MOL6        0.0377
   3694  H10       72.1940  128.4740  140.9760 H       6  MOL6        0.0377
   3695  H10       67.7820  128.0880  149.1820 H       6  MOL6        0.0421
   3696  H10       62.1660  137.4280  128.3050 H       6  MOL6        0.0540
   3697  H10       60.7170  137.9380  127.4060 H       6  MOL6        0.0540
   3698  H10       58.3290  136.3380  128.4560 H       6  MOL6        0.0280
   3699  H10       58.7630  137.7200  129.5150 H       6  MOL6        0.0280
   3700  H11       58.6120  136.1370  130.2090 H       6  MOL6        0.0280
   3701  H11       64.0500  135.3940  130.6910 H       6  MOL6        0.0735
   3702  H11       62.6490  135.1700  131.7220 H       6  MOL6        0.0735
   3703  H11       63.9660  133.2590  129.9060 H       6  MOL6        0.0765
   3704  H11       65.4740  133.7940  131.2040 H       6  MOL6        0.0266
   3705  H11       64.9720  132.4620  132.2200 H       6  MOL6        0.0266
   3706  H11       64.6000  134.0730  132.6450 H       6  MOL6        0.0266
   3707  H11       64.7700  128.4530  133.0410 H       6  MOL6        0.0421
   3708  H11       63.8920  127.6180  135.6180 H       6  MOL6        0.0284
   3709  H11       65.3560  126.8170  135.1770 H       6  MOL6        0.0284
   3710  H11       63.2010  126.6620  133.2050 H       6  MOL6        0.0385
   3711  H11       63.1160  125.7170  134.7620 H       6  MOL6        0.0385
   3712  H11       64.1600  130.6670  134.0420 H       6  MOL6        0.0276
   3713  H11       63.2880  129.8350  135.1700 H       6  MOL6        0.0276
   3714  H11       62.1850  128.4020  133.9920 H       6  MOL6        0.0266
   3715  H11       62.9510  128.4860  132.5380 H       6  MOL6        0.0266
   3716  H11       60.6260  130.1790  133.5170 H       6  MOL6        0.0270
   3717  H11       60.4840  128.8830  132.4510 H       6  MOL6        0.0270
   3718  H11       59.5890  130.8230  131.6360 H       6  MOL6        0.0377
   3719  H11       60.6000  130.0700  130.4650 H       6  MOL6        0.0377
   3720  H11       69.3680  127.2310  151.2610 H       6  MOL6        0.0540
   3721  H11       69.6620  127.3790  149.4150 H       6  MOL6        0.0540
   3722  H11       67.9260  123.8200  150.8880 H       6  MOL6        0.0280
   3723  H11       67.7910  125.3310  151.7680 H       6  MOL6        0.0280
   3724  H11       69.2930  124.4100  151.8570 H       6  MOL6        0.0280
   3725  H11       71.1370  125.5630  146.3380 H       6  MOL6        0.0735
   3726  H11       70.3780  124.2130  146.8820 H       6  MOL6        0.0735
   3727  H11       69.2390  126.2960  145.0680 H       6  MOL6        0.0765
   3728  H11       70.7760  125.5910  143.8220 H       6  MOL6        0.0266
   3729  H11       69.6090  124.4520  143.3480 H       6  MOL6        0.0266
   3730  H11       70.9290  123.9950  144.5080 H       6  MOL6        0.0266
   3731  H11       62.9220  129.9220  144.8130 H       6  MOL6        0.0421
   3732  H11       64.0350  131.4190  143.7420 H       6  MOL6        0.0284
   3733  H11       65.5710  130.9210  144.3280 H       6  MOL6        0.0284
   3734  H11       65.1450  131.3500  142.0220 H       6  MOL6        0.0385
   3735  H11       64.4960  129.6800  141.8250 H       6  MOL6        0.0385
   3736  H11       64.7700  127.9110  143.7720 H       6  MOL6        0.0276
   3737  H11       63.1850  127.9400  143.1980 H       6  MOL6        0.0276
   3738  H11       62.5490  126.4780  144.8850 H       6  MOL6        0.0266
   3739  H11       63.4870  127.2910  146.1090 H       6  MOL6        0.0266
   3740  H11       64.5330  125.6400  143.8540 H       6  MOL6        0.0270
   3741  H11       63.6430  124.7590  144.9820 H       6  MOL6        0.0270
   3742  H11       65.4160  123.9660  144.3190 H       6  MOL6        0.0377
   3743  H11       65.7190  123.9580  145.9580 H       6  MOL6        0.0377
   3744  H11       78.9810  110.4050  146.8840 H       6  MOL6        0.0263
   3745  H11       79.9160  111.3980  145.7720 H       6  MOL6        0.0263
   3746  H11       77.3810  109.9610  144.9380 H       6  MOL6        0.0265
   3747  H11       78.3960  111.0260  143.9580 H       6  MOL6        0.0265
   3748  H11       77.7300  112.2390  146.5400 H       6  MOL6        0.0265
   3749  H11       76.2870  111.8880  145.8080 H       6  MOL6        0.0265
   3750  H11       77.1820  112.9630  143.6590 H       6  MOL6        0.0265
   3751  H11       78.6560  113.2850  144.4080 H       6  MOL6        0.0265
   3752  H11       77.8590  115.3540  145.3330 H       6  MOL6        0.0265
   3753  H11       76.4630  114.6800  145.9110 H       6  MOL6        0.0265
   3754  H11       75.9790  114.4130  143.3280 H       6  MOL6        0.0265
   3755  H11       77.4780  115.2420  143.0790 H       6  MOL6        0.0265
   3756  H11       74.6720  116.0070  143.5050 H       6  MOL6        0.0265
   3757  H11       75.7670  116.2770  142.2230 H       6  MOL6        0.0265
   3758  H11       75.3730  118.3260  142.8030 H       6  MOL6        0.0265
   3759  H11       76.3660  118.2840  144.1670 H       6  MOL6        0.0265
   3760  H11       74.1210  119.1540  144.3870 H       6  MOL6        0.0266
   3761  H11       74.1260  117.5900  145.2440 H       6  MOL6        0.0266
   3762  H11       72.1140  118.2360  143.5760 H       6  MOL6        0.0298
   3763  H11       72.6780  116.6330  143.8970 H       6  MOL6        0.0298
   3764  H11       72.2910  116.9550  141.6020 H       6  MOL6        0.0697
   3765  H11       73.9720  116.7220  141.6210 H       6  MOL6        0.0697
   3766  H11       80.8040  109.2280  146.1560 H       6  MOL6        0.0230
   3767  H11       80.6390  109.7590  144.4630 H       6  MOL6        0.0230
   3768  H11       79.4860  108.5570  145.1300 H       6  MOL6        0.0230
   3769  H11       74.1900  120.2100  138.9270 H       6  MOL6        0.0411
   3770  H11       72.2680  121.6520  140.6740 H       6  MOL6        0.0238
   3771  H11       73.9560  121.9180  140.4760 H       6  MOL6        0.0238
   3772  H11       73.4840  120.7490  141.6240 H       6  MOL6        0.0238
   3773  H11       71.1770  120.3720  139.3300 H       6  MOL6        0.0273
   3774  H11       71.9000  119.6540  137.9140 H       6  MOL6        0.0273
   3775  H11       74.7650  121.1620  137.3510 H       6  MOL6        0.0240
   3776  H11       74.8670  122.8890  136.9210 H       6  MOL6        0.0240
   3777  H11       74.7600  121.6840  135.6930 H       6  MOL6        0.0240
   3778  H11       50.3430  141.5700  152.2020 H       6  MOL6        0.2951
   3779  H11       52.2180  142.5290  152.9150 H       6  MOL6        0.0377
   3780  H11       51.2880  141.8720  154.2540 H       6  MOL6        0.0377
   3781  H11       51.3590  143.9210  155.5060 H       6  MOL6        0.0270
   3782  H11       52.2690  144.7960  154.4480 H       6  MOL6        0.0270
   3783  H11       54.1240  143.4480  154.7710 H       6  MOL6        0.0266
   3784  H11       53.0900  142.8950  156.2190 H       6  MOL6        0.0266
   3785  H11       54.4550  143.5830  157.4490 H       6  MOL6        0.0276
   3786  H11       55.4520  144.4220  156.2740 H       6  MOL6        0.0276
   3787  H11       58.6900  140.5850  157.3830 H       6  MOL6        0.0385
   3788  H11       57.2100  139.9310  158.1090 H       6  MOL6        0.0385
   3789  H11       55.9730  140.6720  156.1370 H       6  MOL6        0.0284
   3790  H11       57.3040  141.5470  155.4740 H       6  MOL6        0.0284
   3791  H11       59.3900  137.3560  142.6110 H       6  MOL6        0.0276
   3792  H11       60.3030  138.7670  142.3680 H       6  MOL6        0.0276
   3793  H11       56.7150  139.9790  141.5340 H       6  MOL6        0.0240
   3794  H11       58.2580  140.7540  141.3050 H       6  MOL6        0.0240
   3795  H11       57.2850  140.9810  142.8220 H       6  MOL6        0.0240
   3796  H11       55.8480  138.0500  145.4280 H       6  MOL6        0.0735
   3797  H11       56.6920  136.5580  145.8430 H       6  MOL6        0.0735
   3798  H11       57.8070  139.1440  146.7620 H       6  MOL6        0.0765
   3799  H11       56.4520  138.0050  148.8680 H       6  MOL6        0.0266
   3800  H12       55.6870  137.0920  147.5720 H       6  MOL6        0.0266
   3801  H12       55.4900  138.8380  147.6340 H       6  MOL6        0.0266
   3802  H12       59.5080  132.9920  149.1230 H       6  MOL6        0.0421
   3803  H12       57.4620  131.1330  149.5680 H       6  MOL6        0.0284
   3804  H12       57.3330  132.0980  151.0370 H       6  MOL6        0.0284
   3805  H12       60.1210  131.5320  150.2230 H       6  MOL6        0.0385
   3806  H12       59.1620  130.0500  150.2710 H       6  MOL6        0.0385
   3807  H12       56.7060  132.6720  148.3300 H       6  MOL6        0.0276
   3808  H12       58.2000  132.3000  147.4880 H       6  MOL6        0.0276
   3809  H12       57.0750  135.1370  148.0070 H       6  MOL6        0.0266
   3810  H12       56.8820  134.2330  146.5730 H       6  MOL6        0.0266
   3811  H12       58.8920  135.4800  146.0220 H       6  MOL6        0.0270
   3812  H12       59.5610  133.9950  146.6710 H       6  MOL6        0.0270
   3813  H12       60.5860  136.1610  147.4920 H       6  MOL6        0.0377
   3814  H12       60.0870  135.1240  148.8260 H       6  MOL6        0.0377
   3815  H12       55.4120  141.7970  157.7400 H       6  MOL6        0.0412
   3816  H12       57.4750  142.4170  160.5180 H       6  MOL6        0.0341
   3817  H12       58.0990  141.2960  159.2920 H       6  MOL6        0.0341
   3818  H12       56.3490  141.2820  159.7200 H       6  MOL6        0.0341
   3819  H12       60.8290  129.4580  143.5000 H       6  MOL6        0.0540
   3820  H12       60.9890  127.7710  142.7810 H       6  MOL6        0.0540
   3821  H12       61.2940  127.8240  140.1200 H       6  MOL6        0.0280
   3822  H12       62.9930  128.0840  140.5660 H       6  MOL6        0.0280
   3823  H12       62.1840  129.1970  139.4430 H       6  MOL6        0.0280
   3824  H12       62.9190  132.9700  142.0650 H       6  MOL6        0.0735
   3825  H12       61.3010  133.5060  141.7320 H       6  MOL6        0.0735
   3826  H12       63.0670  134.1290  143.5580 H       6  MOL6        0.0765
   3827  H12       61.7850  135.6300  145.0110 H       6  MOL6        0.0266
   3828  H12       60.3950  134.7160  144.7630 H       6  MOL6        0.0266
   3829  H12       61.1320  135.7110  143.4200 H       6  MOL6        0.0266
   3830  H12       62.1910  131.3100  152.2230 H       6  MOL6        0.0421
   3831  H12       63.4810  129.1520  152.9900 H       6  MOL6        0.0284
   3832  H12       64.0540  130.7660  152.9110 H       6  MOL6        0.0284
   3833  H12       64.9500  128.5310  151.2950 H       6  MOL6        0.0385
   3834  H12       65.6890  129.2550  152.6600 H       6  MOL6        0.0385
   3835  H12       63.7100  130.9260  149.8610 H       6  MOL6        0.0276
   3836  H12       62.4580  132.0660  150.1200 H       6  MOL6        0.0276
   3837  H12       60.9580  129.8760  149.2670 H       6  MOL6        0.0266
   3838  H12       62.5030  129.7660  148.4340 H       6  MOL6        0.0266
   3839  H12       61.2340  132.4830  148.6060 H       6  MOL6        0.0270
   3840  H12       60.5220  131.3510  147.4720 H       6  MOL6        0.0270
   3841  H12       62.8810  131.1140  146.4210 H       6  MOL6        0.0377
   3842  H12       63.4070  132.2270  147.6940 H       6  MOL6        0.0377
   3843  H12       51.5310  145.9010  151.4250 H       6  MOL6        0.0540
   3844  H12       51.5680  144.0830  151.2980 H       6  MOL6        0.0540
   3845  H12       50.6240  146.2440  147.8870 H       6  MOL6        0.0280
   3846  H12       52.2690  146.7360  148.3560 H       6  MOL6        0.0280
   3847  H12       50.9280  147.1700  149.3660 H       6  MOL6        0.0280
   3848  H12       52.7580  141.8750  148.0030 H       6  MOL6        0.0735
   3849  H12       53.8370  142.1620  149.3990 H       6  MOL6        0.0735
   3850  H12       51.5140  140.6250  149.8660 H       6  MOL6        0.0765
   3851  H12       52.1990  138.3820  149.0070 H       6  MOL6        0.0266
   3852  H12       53.6410  138.9970  148.2520 H       6  MOL6        0.0266
   3853  H12       52.1150  139.4890  147.6020 H       6  MOL6        0.0266
   3854  H12       58.5560  137.4760  154.1730 H       6  MOL6        0.0421
   3855  H12       58.5420  134.5240  154.3190 H       6  MOL6        0.0284
   3856  H12       60.0570  135.3860  154.5180 H       6  MOL6        0.0284
   3857  H12       59.3100  136.4990  152.2000 H       6  MOL6        0.0385
   3858  H12       57.8660  135.5650  152.3980 H       6  MOL6        0.0385
   3859  H12       56.1090  136.4770  155.0610 H       6  MOL6        0.0276
   3860  H12       56.5270  135.5580  153.7010 H       6  MOL6        0.0276
   3861  H12       57.3780  137.9150  152.6910 H       6  MOL6        0.0266
   3862  H12       56.2310  138.5330  153.8740 H       6  MOL6        0.0266
   3863  H12       54.7530  136.7440  152.5000 H       6  MOL6        0.0270
   3864  H12       55.9140  137.2330  151.2370 H       6  MOL6        0.0270
   3865  H12       54.6160  139.4460  152.7910 H       6  MOL6        0.0377
   3866  H12       53.4030  138.3760  152.1650 H       6  MOL6        0.0377
   3867  H12       59.5390  145.2630  129.3880 H       6  MOL6        0.0263
   3868  H12       58.7340  143.7150  129.5540 H       6  MOL6        0.0263
   3869  H12       61.6290  144.2050  129.6010 H       6  MOL6        0.0265
   3870  H12       61.0660  142.6900  128.8770 H       6  MOL6        0.0265
   3871  H12       59.7400  142.1390  130.8490 H       6  MOL6        0.0265
   3872  H12       59.8120  143.7750  131.4370 H       6  MOL6        0.0265
   3873  H12       62.0570  143.7640  131.8700 H       6  MOL6        0.0265
   3874  H12       62.2160  142.1580  131.0450 H       6  MOL6        0.0265
   3875  H12       60.9970  141.0850  132.8060 H       6  MOL6        0.0265
   3876  H12       60.9750  142.5410  133.7380 H       6  MOL6        0.0265
   3877  H12       63.4870  142.6610  133.7320 H       6  MOL6        0.0265
   3878  H12       63.5800  141.6160  132.3740 H       6  MOL6        0.0265
   3879  H12       64.1160  140.9460  134.8790 H       6  MOL6        0.0265
   3880  H12       63.9220  139.8710  133.5260 H       6  MOL6        0.0265
   3881  H12       61.2640  139.9990  134.6380 H       6  MOL6        0.0265
   3882  H12       62.3740  140.0570  135.9820 H       6  MOL6        0.0265
   3883  H12       63.5870  138.1320  134.7610 H       6  MOL6        0.0266
   3884  H12       61.8140  137.8480  134.3750 H       6  MOL6        0.0266
   3885  H12       61.6370  138.5180  136.8200 H       6  MOL6        0.0298
   3886  H12       63.3340  138.0130  136.9850 H       6  MOL6        0.0298
   3887  H12       62.5520  135.9060  137.2490 H       6  MOL6        0.0697
   3888  H12       61.4430  135.9170  135.8680 H       6  MOL6        0.0697
   3889  H12       59.3930  145.2170  127.1250 H       6  MOL6        0.0230
   3890  H12       57.9060  144.6570  127.8040 H       6  MOL6        0.0230
   3891  H12       58.9880  143.4990  126.9880 H       6  MOL6        0.0230
   3892  H12       58.4940  136.8830  139.1790 H       6  MOL6        0.0411
   3893  H12       58.1310  139.1600  138.1850 H       6  MOL6        0.0238
   3894  H12       58.5460  137.9000  137.0800 H       6  MOL6        0.0238
   3895  H12       59.7650  138.9660  137.4360 H       6  MOL6        0.0238
   3896  H12       60.1000  139.2100  140.3890 H       6  MOL6        0.0273
   3897  H12       60.6350  137.5620  140.7390 H       6  MOL6        0.0273
   3898  H12       59.4590  138.9230  144.4380 H       6  MOL6        0.0240
   3899  H12       58.4000  140.3310  144.5500 H       6  MOL6        0.0240
   3900  H13       59.8030  140.3740  143.4420 H       6  MOL6        0.0240
   3901  O65      107.9300   81.9420  129.4390 O.2     7  MOL7       -0.2510
   3902  O65      106.5880   82.6630  127.8820 O.3     7  MOL7       -0.4806
   3903  C65      106.8220   81.8890  128.9740 C.2     7  MOL7        0.3047
   3904  C65      105.4790   81.0720  129.2560 C.3     7  MOL7        0.0448
   3905  C65      104.6750   80.5460  130.5330 C.3     7  MOL7       -0.0430
   3906  C65      103.0780   80.6050  130.9190 C.3     7  MOL7       -0.0515
   3907  C65      102.7700   80.2000  132.4900 C.3     7  MOL7       -0.0403
   3908  S65      100.4070   84.6790  134.6250 S.3     7  MOL7       -0.0928
   3909  C65      100.4080   82.6290  134.7790 C.3     7  MOL7        0.0050
   3910  C66      100.5860   81.2190  133.9200 C.3     7  MOL7       -0.0305
   3911  C66      100.8000   90.3340  122.2310 C.2     7  MOL7        0.3129
   3912  C66       99.8290   91.5610  121.8760 C.3     7  MOL7        0.0622
   3913  C66       99.6150   92.7420  122.8390 C.3     7  MOL7       -0.0370
   3914  C66      100.3430   92.3570  120.7090 C.3     7  MOL7       -0.0497
   3915  O66      101.9630   90.3950  122.5100 O.2     7  MOL7       -0.2502
   3916  O66      100.0920   89.1470  122.1650 O.3     7  MOL7       -0.4605
   3917  C66      100.5060   87.7350  122.3770 C.3     7  MOL7        0.1290
   3918  C66       99.6620   86.7060  123.2070 C.3     7  MOL7        0.1341
   3919  C66       99.9320   87.0780  124.6100 C.3     7  MOL7       -0.0244
   3920  C67       94.5100   82.9900  128.4370 C.3     7  MOL7        0.0162
   3921  C67       94.5420   83.6280  129.9440 C.3     7  MOL7       -0.0305
   3922  C67       94.0220   84.7060  131.0290 C.3     7  MOL7        0.0050
   3923  S67       92.2410   85.1170  131.4890 S.3     7  MOL7       -0.0928
   3924  C67       94.3790   82.9180  126.7520 C.3     7  MOL7       -0.0403
   3925  C67       94.3190   83.2850  125.1570 C.3     7  MOL7       -0.0515
   3926  C67       94.8280   84.0960  123.8490 C.3     7  MOL7       -0.0429
   3927  C67       96.0770   84.7190  123.0380 C.3     7  MOL7        0.0450
   3928  C67       97.6490   84.9900  122.8670 C.2     7  MOL7        0.3074
   3929  O67       98.2410   86.1640  123.2670 O.3     7  MOL7       -0.4582
   3930  O68       98.2700   84.1660  122.2810 O.2     7  MOL7       -0.2508
   3931  C68      101.8850   80.4280  133.9790 C.3     7  MOL7        0.0162
   3932  C68       94.0920   95.2290  124.3480 C.2     7  MOL7        0.3344
   3933  C68       92.7560   95.8440  123.9230 C.2     7  MOL7        0.0264
   3934  C68       91.6390   95.7300  124.6570 C.2     7  MOL7       -0.0890
   3935  C68       92.5370   96.5600  122.6170 C.3     7  MOL7       -0.0335
   3936  O68       95.0600   95.4060  123.6530 O.2     7  MOL7       -0.2453
   3937  O68       94.1780   94.4830  125.4960 O.3     7  MOL7       -0.4577
   3938  C68       95.0410   93.4550  126.1500 C.3     7  MOL7        0.1293
   3939  C68       94.8050   91.8910  126.4490 C.3     7  MOL7        0.1341
   3940  C69       95.9770   91.7200  127.4590 C.3     7  MOL7       -0.0244
   3941  C69       90.5760   87.3340  132.6590 C.3     7  MOL7        0.0162
   3942  C69       89.2610   86.7220  133.1370 C.3     7  MOL7       -0.0313
   3943  C69       88.1930   87.6360  132.5930 C.3     7  MOL7       -0.0056
   3944  S69       86.9680   86.8600  131.5650 S.3     7  MOL7       -0.1641
   3945  C69       90.5600   89.0110  132.5680 C.3     7  MOL7       -0.0403
   3946  C69       90.7100   90.1850  131.3520 C.3     7  MOL7       -0.0515
   3947  C69       90.8530   90.9400  129.8370 C.3     7  MOL7       -0.0429
   3948  C69       91.0960   91.2010  128.1540 C.3     7  MOL7        0.0450
   3949  C69       91.9930   90.8010  126.7560 C.2     7  MOL7        0.3074
   3950  O70       93.3970   91.1520  126.4470 O.3     7  MOL7       -0.4582
   3951  O70       91.4530   90.2050  125.8870 O.2     7  MOL7       -0.2508
   3952  C70       86.2580   88.2630  130.6140 C.3     7  MOL7       -0.0181
   3953  S70       92.0530   86.3340  133.1870 S.3     7  MOL7       -0.0897
   3954  C70      107.5850   82.0580  124.3760 C.2     7  MOL7        0.3344
   3955  C70      108.0520   80.8340  123.7530 C.2     7  MOL7        0.0264
   3956  C70      107.1340   79.9300  123.3570 C.2     7  MOL7       -0.0890
   3957  C70      109.5120   80.7160  123.5000 C.3     7  MOL7       -0.0335
   3958  O70      108.3200   82.9000  124.8410 O.2     7  MOL7       -0.2453
   3959  O70      106.2590   82.2860  124.3830 O.3     7  MOL7       -0.4577
   3960  C71      105.8160   83.5090  123.8420 C.3     7  MOL7        0.1293
   3961  C71      105.9810   84.6930  124.7250 C.3     7  MOL7        0.1341
   3962  C71      105.3280   85.9030  124.0710 C.3     7  MOL7       -0.0244
   3963  S71      100.7220   85.8320  132.8740 S.3     7  MOL7       -0.0897
   3964  C71      101.0750   85.0060  131.1470 C.3     7  MOL7        0.0162
   3965  C71      100.5510   83.7140  130.3020 C.3     7  MOL7       -0.0305
   3966  C71       99.3590   82.7310  129.8010 C.3     7  MOL7        0.0050
   3967  S71       97.6610   82.1610  129.3030 S.3     7  MOL7       -0.0928
   3968  C71      101.5600   86.2500  130.4140 C.3     7  MOL7       -0.0403
   3969  C71      102.4600   86.1210  129.1680 C.3     7  MOL7       -0.0515
   3970  C72      103.9840   86.2060  128.8720 C.3     7  MOL7       -0.0429
   3971  C72      104.9040   85.1870  128.1370 C.3     7  MOL7        0.0450
   3972  C72      104.6330   84.6130  126.7590 C.2     7  MOL7        0.3074
   3973  O72      105.8290   84.5530  126.1450 O.3     7  MOL7       -0.4582
   3974  O72      103.5940   84.3430  126.2530 O.2     7  MOL7       -0.2508
   3975  S72       95.7960   81.6670  128.8010 S.3     7  MOL7       -0.0897
   3976  C72       96.4810  106.3300  115.1210 C.3     7  MOL7       -0.0559
   3977  C72       96.2650  104.9080  115.5750 C.3     7  MOL7       -0.0533
   3978  C72       95.1550  104.3990  116.4990 C.3     7  MOL7       -0.0531
   3979  C72       95.4650  102.9090  116.6940 C.3     7  MOL7       -0.0531
   3980  C73       94.4760  101.7610  116.9020 C.3     7  MOL7       -0.0531
   3981  C73       95.1160  100.4420  116.3830 C.3     7  MOL7       -0.0531
   3982  C73       95.2360   99.4100  117.4930 C.3     7  MOL7       -0.0531
   3983  C73       96.5650   98.7320  117.8160 C.3     7  MOL7       -0.0530
   3984  C73       96.2250   97.8080  118.9730 C.3     7  MOL7       -0.0500
   3985  C73       97.0690   97.4810  120.1750 C.3     7  MOL7       -0.0185
   3986  C73       96.3730   96.3750  120.8880 C.3     7  MOL7        0.0925
   3987  C73       97.6790  106.3310  114.1580 C.3     7  MOL7       -0.0653
   3988  C73       98.3780   94.9290  123.5080 C.3     7  MOL7        0.0537
   3989  C73       97.6520   96.0730  122.8540 C.2     7  MOL7        0.3099
   3990  O74       97.3050   95.6230  121.6330 O.3     7  MOL7       -0.4644
   3991  O74       97.2990   97.1620  123.2320 O.2     7  MOL7       -0.2505
   3992  C74       99.4730   95.0760  124.5810 C.3     7  MOL7       -0.0523
   3993  C74       98.7130   93.8970  122.3830 C.3     7  MOL7       -0.0394
   3994  C74       98.5160   91.0340  121.3990 C.3     7  MOL7       -0.0497
   3995  O74       98.2810   66.4060  147.5570 O.2     7  MOL7       -0.2510
   3996  O74       99.7650   67.8920  148.3880 O.3     7  MOL7       -0.4806
   3997  C74       99.3490   66.9340  147.5160 C.2     7  MOL7        0.3047
   3998  C74      100.3970   66.7600  146.4460 C.3     7  MOL7        0.0448
   3999  C74      100.6220   65.3710  145.8090 C.3     7  MOL7       -0.0430
   4000  C75      100.5140   65.5590  144.3130 C.3     7  MOL7       -0.0515
   4001  C75      101.1530   64.6290  143.2970 C.3     7  MOL7       -0.0403
   4002  S75      102.0360   68.1640  139.7950 S.3     7  MOL7       -0.0928
   4003  C75      100.7650   67.1000  140.4220 C.3     7  MOL7        0.0050
   4004  C75      101.0420   66.6210  141.8040 C.3     7  MOL7       -0.0305
   4005  C75       95.0210   77.5950  136.8550 C.2     7  MOL7        0.3129
   4006  C75       93.8700   77.4890  137.8720 C.3     7  MOL7        0.0622
   4007  C75       94.2820   76.4610  138.9020 C.3     7  MOL7       -0.0370
   4008  C75       93.9900   78.7900  138.6650 C.3     7  MOL7       -0.0497
   4009  O75       95.5620   78.6540  136.7080 O.2     7  MOL7       -0.2502
   4010  O76       95.4740   76.4150  136.2570 O.3     7  MOL7       -0.4605
   4011  C76       94.6450   75.5750  135.4330 C.3     7  MOL7        0.1290
   4012  C76       95.2320   74.5230  134.4830 C.3     7  MOL7        0.1341
   4013  C76       96.3250   74.5820  133.4250 C.3     7  MOL7       -0.0244
   4014  C76      101.1670   73.2380  135.1960 C.3     7  MOL7        0.0162
   4015  C76      101.9520   73.9150  133.8640 C.3     7  MOL7       -0.0305
   4016  C76      102.8360   74.7680  132.7480 C.3     7  MOL7        0.0050
   4017  S76      103.8530   76.2970  132.5220 S.3     7  MOL7       -0.0928
   4018  C76       99.6490   73.2170  135.0710 C.3     7  MOL7       -0.0403
   4019  C76       98.8570   73.2640  136.4400 C.3     7  MOL7       -0.0515
   4020  C77       97.5990   72.4180  136.8250 C.3     7  MOL7       -0.0429
   4021  C77       96.6820   71.5890  135.9040 C.3     7  MOL7        0.0450
   4022  C77       95.7260   72.2460  135.0370 C.2     7  MOL7        0.3074
   4023  O77       95.8120   73.5460  135.3420 O.3     7  MOL7       -0.4582
   4024  O77       95.0070   71.7550  134.1970 O.2     7  MOL7       -0.2508
   4025  S77      102.7370   64.6320  141.0230 S.3     7  MOL7       -0.0897
   4026  C77      101.1780   65.1200  141.8500 C.3     7  MOL7        0.0162
   4027  C77      111.3100   79.2670  129.5680 C.2     7  MOL7        0.3344
   4028  C77      112.3670   79.8670  128.8050 C.2     7  MOL7        0.0264
   4029  C77      112.1350   80.2510  127.5410 C.2     7  MOL7       -0.0890
   4030  C78      113.6490   79.9430  129.5290 C.3     7  MOL7       -0.0335
   4031  O78      111.5240   78.5510  130.5230 O.2     7  MOL7       -0.2453
   4032  O78      110.0580   79.5680  129.1770 O.3     7  MOL7       -0.4577
   4033  C78      109.0420   78.7560  129.6920 C.3     7  MOL7        0.1293
   4034  C78      108.0840   79.3240  130.6500 C.3     7  MOL7        0.1341
   4035  C78      106.9000   78.2520  130.5900 C.3     7  MOL7       -0.0244
   4036  C78      104.3210   78.2710  135.1480 C.3     7  MOL7        0.0162
   4037  C78      103.9000   78.2910  136.6430 C.3     7  MOL7       -0.0305
   4038  C78      104.1090   79.5250  137.4670 C.3     7  MOL7        0.0050
   4039  S78      102.6050   80.4480  137.5020 S.3     7  MOL7       -0.0928
   4040  C79      105.7730   77.9230  134.9590 C.3     7  MOL7       -0.0403
   4041  C79      106.6190   79.1550  135.5020 C.3     7  MOL7       -0.0515
   4042  C79      108.1640   79.6820  135.3600 C.3     7  MOL7       -0.0429
   4043  C79      109.1260   80.4730  134.2600 C.3     7  MOL7        0.0450
   4044  C79      109.5650   80.1800  132.7320 C.2     7  MOL7        0.3074
   4045  O79      108.5100   80.1310  131.8460 O.3     7  MOL7       -0.4582
   4046  O79      110.7120   79.9550  132.4740 O.2     7  MOL7       -0.2508
   4047  S79      102.8020   80.9260  135.5250 S.3     7  MOL7       -0.0897
   4048  S79      103.1660   77.7520  133.7700 S.3     7  MOL7       -0.0897
   4049  C79       97.8700   66.2250  142.6330 C.2     7  MOL7        0.3344
   4050  C80       97.9770   64.8240  143.0620 C.2     7  MOL7        0.0264
   4051  C80       98.2140   64.0220  142.0470 C.2     7  MOL7       -0.0890
   4052  C80       97.9780   64.2850  144.4700 C.3     7  MOL7       -0.0335
   4053  O80       97.8590   67.1160  143.4410 O.2     7  MOL7       -0.2453
   4054  O80       97.7690   66.5770  141.3010 O.3     7  MOL7       -0.4577
   4055  C80       97.1020   67.8270  141.1720 C.3     7  MOL7        0.1293
   4056  C80       97.9280   69.0150  140.9540 C.3     7  MOL7        0.1341
   4057  C80       97.0100   70.1390  140.4300 C.3     7  MOL7       -0.0244
   4058  S80      103.8170   67.2440  140.2260 S.3     7  MOL7       -0.0897
   4059  C80      104.7390   68.7600  139.8640 C.3     7  MOL7        0.0162
   4060  C81      104.6140   68.8970  138.3200 C.3     7  MOL7       -0.0305
   4061  C81      104.1670   70.1600  137.6030 C.3     7  MOL7        0.0050
   4062  S81      102.3530   70.1280  137.2500 S.3     7  MOL7       -0.0928
   4063  C81      104.2000   69.8660  140.7750 C.3     7  MOL7       -0.0403
   4064  C81      103.7640   69.5380  142.2290 C.3     7  MOL7       -0.0515
   4065  C81      102.4090   70.1430  142.7680 C.3     7  MOL7       -0.0429
   4066  C81      100.8580   70.1360  142.9650 C.3     7  MOL7        0.0450
   4067  C81       99.7570   70.1330  141.9350 C.2     7  MOL7        0.3074
   4068  O81       98.8960   69.1020  142.0340 O.3     7  MOL7       -0.4582
   4069  O81       99.5180   71.0600  141.2240 O.2     7  MOL7       -0.2508
   4070  S82      101.2350   71.5620  136.2050 S.3     7  MOL7       -0.0897
   4071  C82       82.1770   73.4290  147.8730 C.3     7  MOL7       -0.0559
   4072  C82       83.4310   74.2570  147.8100 C.3     7  MOL7       -0.0533
   4073  C82       84.5920   73.3350  147.4620 C.3     7  MOL7       -0.0531
   4074  C82       85.0060   73.5820  146.0110 C.3     7  MOL7       -0.0531
   4075  C82       86.0920   72.7000  145.3390 C.3     7  MOL7       -0.0531
   4076  C82       86.8860   73.6950  144.5490 C.3     7  MOL7       -0.0531
   4077  C82       88.2530   73.7100  143.9100 C.3     7  MOL7       -0.0531
   4078  C82       89.0420   72.7560  143.0660 C.3     7  MOL7       -0.0530
   4079  C82       90.3260   72.3430  143.7310 C.3     7  MOL7       -0.0500
   4080  C83       91.1860   73.4970  144.2530 C.3     7  MOL7       -0.0185
   4081  C83       91.0310   74.8610  143.5950 C.3     7  MOL7        0.0925
   4082  C83       80.9370   74.2020  148.1200 C.3     7  MOL7       -0.0653
   4083  C83       92.4100   75.8080  140.3890 C.3     7  MOL7        0.0537
   4084  C83       91.6730   76.0590  141.6590 C.2     7  MOL7        0.3099
   4085  O83       91.5170   74.8630  142.2620 O.3     7  MOL7       -0.4644
   4086  O83       91.2790   77.1170  142.1000 O.2     7  MOL7       -0.2505
   4087  C83       92.8660   74.3700  140.1350 C.3     7  MOL7       -0.0523
   4088  C83       93.6810   76.6170  140.3040 C.3     7  MOL7       -0.0394
   4089  C83       92.5270   77.3210  137.1660 C.3     7  MOL7       -0.0497
   4090  O84      123.5960   57.0280  138.8680 O.2     7  MOL7       -0.2510
   4091  O84      122.7060   58.7500  140.0070 O.3     7  MOL7       -0.4806
   4092  C84      122.6640   57.5120  139.4240 C.2     7  MOL7        0.3047
   4093  C84      121.2650   56.9160  139.5620 C.3     7  MOL7        0.0448
   4094  C84      121.1100   55.4470  139.0180 C.3     7  MOL7       -0.0430
   4095  C84      119.7830   54.5200  138.8890 C.3     7  MOL7       -0.0516
   4096  C84      118.4280   53.6190  138.7900 C.3     7  MOL7       -0.0411
   4097  S84      113.9360   55.6980  140.7890 S.3     7  MOL7       -0.0928
   4098  C84      114.4430   54.0020  140.3310 C.3     7  MOL7        0.0049
   4099  C84      115.7480   54.3480  139.5730 C.3     7  MOL7       -0.0313
   4100  C85      115.0600   66.9700  135.5610 C.2     7  MOL7        0.3129
   4101  C85      114.4530   67.1390  134.1910 C.3     7  MOL7        0.0622
   4102  C85      113.1270   67.9320  134.0220 C.3     7  MOL7       -0.0370
   4103  C85      115.6070   67.3520  133.2840 C.3     7  MOL7       -0.0497
   4104  O85      116.1950   67.2230  135.8820 O.2     7  MOL7       -0.2502
   4105  O85      114.1540   66.3210  136.3460 O.3     7  MOL7       -0.4605
   4106  C85      114.7470   65.5010  137.3370 C.3     7  MOL7        0.1290
   4107  C85      114.4270   64.0610  137.2760 C.3     7  MOL7        0.1341
   4108  C85      115.3440   63.4860  138.3330 C.3     7  MOL7       -0.0244
   4109  C85      110.8680   63.8980  141.8540 C.3     7  MOL7        0.0162
   4110  C86      110.6120   63.7740  143.3530 C.3     7  MOL7       -0.0305
   4111  C86      109.1410   63.5020  143.5860 C.3     7  MOL7        0.0050
   4112  S86      108.5890   61.9900  144.3370 S.3     7  MOL7       -0.0928
   4113  C86      111.6290   65.1520  141.5830 C.3     7  MOL7       -0.0403
   4114  C86      112.4190   65.2190  140.2870 C.3     7  MOL7       -0.0515
   4115  C86      111.4780   65.1770  139.0810 C.3     7  MOL7       -0.0429
   4116  C86      111.1380   63.7670  138.5930 C.3     7  MOL7        0.0450
   4117  C86      112.4270   63.0790  138.3420 C.2     7  MOL7        0.3074
   4118  O86      113.0520   64.0080  137.6080 O.3     7  MOL7       -0.4582
   4119  O86      112.8430   61.9960  138.6730 O.2     7  MOL7       -0.2508
   4120  S87      116.4310   51.6800  138.9880 S.3     7  MOL7       -0.1607
   4121  C87      116.9500   53.3700  139.3780 C.3     7  MOL7        0.0058
   4122  C87      115.4450   51.2140  140.3870 C.3     7  MOL7       -0.0178
   4123  C87      107.4100   71.2300  138.3240 C.2     7  MOL7        0.3344
   4124  C87      106.9010   71.8920  139.5290 C.2     7  MOL7        0.0264
   4125  C87      107.0140   71.2430  140.6950 C.2     7  MOL7       -0.0890
   4126  C87      106.2450   73.2400  139.4020 C.3     7  MOL7       -0.0335
   4127  O87      107.2470   71.7610  137.2470 O.2     7  MOL7       -0.2453
   4128  O87      108.0240   69.9970  138.3900 O.3     7  MOL7       -0.4577
   4129  C87      108.3240   69.4270  137.1070 C.3     7  MOL7        0.1293
   4130  C88      108.4160   67.9140  137.0850 C.3     7  MOL7        0.1341
   4131  C88      109.6840   67.1030  136.6640 C.3     7  MOL7       -0.0244
   4132  C88      105.9780   62.4310  142.9880 C.3     7  MOL7        0.0162
   4133  C88      104.5560   61.8160  143.1410 C.3     7  MOL7       -0.0305
   4134  C88      103.1940   62.2580  142.6440 C.3     7  MOL7        0.0050
   4135  S88      102.7830   62.6210  140.9190 S.3     7  MOL7       -0.0928
   4136  C88      106.1690   63.4430  141.8410 C.3     7  MOL7       -0.0403
   4137  C88      106.6980   64.8510  142.0860 C.3     7  MOL7       -0.0515
   4138  C88      107.6570   65.2510  140.9740 C.3     7  MOL7       -0.0429
   4139  C88      106.9090   65.7550  139.7670 C.3     7  MOL7        0.0450
   4140  C89      107.9030   66.0720  138.6870 C.2     7  MOL7        0.3074
   4141  O89      107.7330   67.3580  138.2500 O.3     7  MOL7       -0.4582
   4142  O89      108.6970   65.2660  138.2870 O.2     7  MOL7       -0.2508
   4143  S89      106.7570   62.8080  144.5880 S.3     7  MOL7       -0.0897
   4144  C89      122.1430   60.8290  136.5710 C.2     7  MOL7        0.3344
   4145  C89      122.7820   59.7100  135.8930 C.2     7  MOL7        0.0264
   4146  C89      122.5880   58.5550  136.5170 C.2     7  MOL7       -0.0890
   4147  C89      123.5540   59.8340  134.6240 C.3     7  MOL7       -0.0335
   4148  O89      122.3450   61.9810  136.2530 O.2     7  MOL7       -0.2453
   4149  O89      121.2520   60.5270  137.5840 O.3     7  MOL7       -0.4577
   4150  C90      120.0180   61.2450  137.5590 C.3     7  MOL7        0.1293
   4151  C90      119.5870   61.4840  138.9610 C.3     7  MOL7        0.1341
   4152  C90      119.0160   62.8790  139.3400 C.3     7  MOL7       -0.0244
   4153  S90      112.4670   55.9830  142.2100 S.3     7  MOL7       -0.0897
   4154  C90      112.4320   57.7300  141.7140 C.3     7  MOL7        0.0162
   4155  C90      111.1790   58.5730  141.9370 C.3     7  MOL7       -0.0305
   4156  C90      111.4280   59.8700  141.1990 C.3     7  MOL7        0.0050
   4157  S90      110.2330   61.1650  141.5050 S.3     7  MOL7       -0.0928
   4158  C90      113.6840   58.4400  142.2070 C.3     7  MOL7       -0.0403
   4159  C90      114.5650   58.8030  141.0040 C.3     7  MOL7       -0.0515
   4160  C91      115.5020   59.9950  141.0880 C.3     7  MOL7       -0.0429
   4161  C91      116.9180   59.7700  140.5590 C.3     7  MOL7        0.0450
   4162  C91      117.5200   60.5500  139.4220 C.2     7  MOL7        0.3074
   4163  O91      118.8560   60.4320  139.5970 O.3     7  MOL7       -0.4582
   4164  O91      117.0430   61.1840  138.5240 O.2     7  MOL7       -0.2508
   4165  S91      111.7440   62.4850  141.2630 S.3     7  MOL7       -0.0897
   4166  C91      116.7500   76.7880  123.3790 C.3     7  MOL7       -0.0559
   4167  C91      115.2860   76.4610  123.5810 C.3     7  MOL7       -0.0533
   4168  C91      115.2820   75.5160  124.7870 C.3     7  MOL7       -0.0531
   4169  C91      114.0350   74.7200  124.7820 C.3     7  MOL7       -0.0531
   4170  C92      113.6280   73.9390  125.9880 C.3     7  MOL7       -0.0531
   4171  C92      112.1980   73.5040  125.6690 C.3     7  MOL7       -0.0531
   4172  C92      111.2450   73.2080  126.8170 C.3     7  MOL7       -0.0531
   4173  C92      111.7670   73.0460  128.2480 C.3     7  MOL7       -0.0530
   4174  C92      110.8350   73.5780  129.2970 C.3     7  MOL7       -0.0500
   4175  C92      110.6440   72.5700  130.3840 C.3     7  MOL7       -0.0185
   4176  C92      110.4930   73.0140  131.8130 C.3     7  MOL7        0.0925
   4177  C92      117.4110   78.0470  122.8880 C.3     7  MOL7       -0.0653
   4178  C92      113.0220   70.8320  133.2380 C.3     7  MOL7        0.0537
   4179  C92      111.6920   71.4980  133.3660 C.2     7  MOL7        0.3099
   4180  O93      111.6370   72.4130  132.3960 O.3     7  MOL7       -0.4644
   4181  O93      110.8460   71.2740  134.1880 O.2     7  MOL7       -0.2505
   4182  C93      113.8750   71.5630  132.1670 C.3     7  MOL7       -0.0523
   4183  C93      112.8190   69.2420  133.2210 C.3     7  MOL7       -0.0394
   4184  C93      113.9730   65.7340  133.9200 C.3     7  MOL7       -0.0497
   4185 5H93      105.7340   82.4580  127.5000 H       7  MOL7        0.2951
   4186 6H93      105.7890   80.1810  128.7270 H       7  MOL7        0.0377
   4187 7H93      104.8580   81.6250  128.5860 H       7  MOL7        0.0377
   4188 8H93      105.2420   80.8560  131.3790 H       7  MOL7        0.0270
   4189 9H93      104.7960   79.4500  130.5230 H       7  MOL7        0.0270
   4190 0H94      102.7340   79.6820  130.4150 H       7  MOL7        0.0266
   4191 1H94      102.4000   81.2960  130.4340 H       7  MOL7        0.0266
   4192 2H94      103.7120   79.7140  132.7110 H       7  MOL7        0.0276
   4193 3H94      102.0370   79.4250  132.1820 H       7  MOL7        0.0276
   4194 4H94       99.4280   82.5500  135.2310 H       7  MOL7        0.0385
   4195 5H94      101.0660   82.5000  135.6110 H       7  MOL7        0.0385
   4196 6H94      100.3090   81.0150  132.8710 H       7  MOL7        0.0284
   4197 7H94       99.8800   80.6040  134.4610 H       7  MOL7        0.0284
   4198 8H94      100.6270   93.0530  123.0540 H       7  MOL7        0.0276
   4199 9H94       99.1620   92.6040  123.8050 H       7  MOL7        0.0276
   4200 0H95      101.2150   91.9470  120.2730 H       7  MOL7        0.0240
   4201 1H95      100.6330   93.3750  120.9120 H       7  MOL7        0.0240
   4202 2H95       99.5850   92.4280  119.9410 H       7  MOL7        0.0240
   4203 3H95      100.7530   87.2620  121.4220 H       7  MOL7        0.0735
   4204 4H95      101.4710   87.7440  122.9190 H       7  MOL7        0.0735
   4205 5H95      100.2960   85.8520  123.1170 H       7  MOL7        0.0765
   4206 6H95       99.4100   86.2950  125.1190 H       7  MOL7        0.0266
   4207 7H95       99.5350   87.9800  125.0440 H       7  MOL7        0.0266
   4208 8H95      101.0070   87.1330  124.7100 H       7  MOL7        0.0266
   4209 9H95       93.7540   82.1890  128.5770 H       7  MOL7        0.0421
   4210 0H96       95.6200   83.7700  130.1670 H       7  MOL7        0.0284
   4211 1H96       94.3370   82.6690  130.4400 H       7  MOL7        0.0284
   4212 2H96       94.5990   85.6340  130.9930 H       7  MOL7        0.0385
   4213 3H96       94.4960   84.2130  131.8650 H       7  MOL7        0.0385
   4214 4H96       95.3290   82.4320  126.6720 H       7  MOL7        0.0276
   4215 5H96       93.7370   82.0310  126.6860 H       7  MOL7        0.0276
   4216 6H96       93.2450   83.4890  124.9700 H       7  MOL7        0.0266
   4217 7H96       94.4500   82.2370  124.8390 H       7  MOL7        0.0266
   4218 8H96       94.0750   84.9050  123.7340 H       7  MOL7        0.0270
   4219 9H96       94.4740   83.3680  123.0950 H       7  MOL7        0.0270
   4220 0H97       95.5450   85.2520  122.2340 H       7  MOL7        0.0377
   4221 1H97       96.2550   83.7450  122.5520 H       7  MOL7        0.0377
   4222 2H97      101.4720   79.4150  134.0830 H       7  MOL7        0.0421
   4223 3H97       90.6800   96.0850  124.2810 H       7  MOL7        0.0540
   4224 4H97       91.5750   95.1600  125.5760 H       7  MOL7        0.0540
   4225 5H97       92.0930   97.5470  122.7840 H       7  MOL7        0.0280
   4226 6H97       91.7690   96.0460  122.0390 H       7  MOL7        0.0280
   4227 7H97       93.4450   96.5920  122.0100 H       7  MOL7        0.0280
   4228 8H97       96.0530   93.5430  125.7540 H       7  MOL7        0.0735
   4229 9H97       95.0410   93.8590  127.1680 H       7  MOL7        0.0735
   4230 0H98       95.1190   91.2730  125.6520 H       7  MOL7        0.0765
   4231 1H98       96.8390   92.2230  126.9850 H       7  MOL7        0.0266
   4232 2H98       96.3570   90.7150  127.6460 H       7  MOL7        0.0266
   4233 3H98       95.8580   92.2120  128.4330 H       7  MOL7        0.0266
   4234 4H98       90.4510   86.8050  131.7320 H       7  MOL7        0.0421
   4235 5H98       89.1930   86.6780  134.2090 H       7  MOL7        0.0284
   4236 6H98       89.1590   85.6960  132.7420 H       7  MOL7        0.0284
   4237 7H98       88.6150   88.3110  131.8450 H       7  MOL7        0.0377
   4238 8H98       87.8560   88.1870  133.4700 H       7  MOL7        0.0377
   4239 9H98       89.6260   89.3360  133.0590 H       7  MOL7        0.0276
   4240 0H99       91.2830   89.4610  133.2500 H       7  MOL7        0.0276
   4241 1H99       91.7690   90.3490  131.5680 H       7  MOL7        0.0266
   4242 2H99       90.2490   91.0570  131.8640 H       7  MOL7        0.0266
   4243 3H99       91.5890   91.6770  130.2330 H       7  MOL7        0.0270
   4244 4H99       90.0690   91.6190  130.0350 H       7  MOL7        0.0270
   4245 5H99       90.8380   92.2330  128.1250 H       7  MOL7        0.0377
   4246 6H99       90.2850   90.7100  127.6590 H       7  MOL7        0.0377
   4247 7H99       85.2640   88.6150  130.9240 H       7  MOL7        0.0340
   4248 8H99       86.0990   87.9820  129.5810 H       7  MOL7        0.0340
   4249 9H99       86.9430   89.1030  130.5820 H       7  MOL7        0.0340
   4250  H10      107.4090   78.9920  122.8880 H       7  MOL7        0.0540
   4251  H10      106.0680   80.1080  123.4480 H       7  MOL7        0.0540
   4252  H10      110.0320   80.5210  124.4360 H       7  MOL7        0.0280
   4253  H10      109.9600   81.6100  123.0490 H       7  MOL7        0.0280
   4254  H10      109.6760   79.9020  122.7870 H       7  MOL7        0.0280
   4255  H10      106.3700   83.7450  122.9280 H       7  MOL7        0.0735
   4256  H10      104.8070   83.3100  123.4790 H       7  MOL7        0.0735
   4257  H10      107.0510   84.8820  124.6830 H       7  MOL7        0.0765
   4258  H10      105.3040   86.8020  124.6860 H       7  MOL7        0.0266
   4259  H10      104.3060   85.7100  123.7340 H       7  MOL7        0.0266
   4260  H10      105.9260   86.1400  123.1930 H       7  MOL7        0.0266
   4261  H10      102.0640   84.6340  131.0870 H       7  MOL7        0.0421
   4262  H10      100.9640   84.0680  129.3800 H       7  MOL7        0.0284
   4263  H10      101.2280   82.9130  130.6280 H       7  MOL7        0.0284
   4264  H10       99.4820   81.8140  130.3920 H       7  MOL7        0.0385
   4265  H10       99.7680   82.1690  128.9510 H       7  MOL7        0.0385
   4266  H10      102.1440   86.7070  131.1610 H       7  MOL7        0.0276
   4267  H10      100.7780   87.0070  130.3020 H       7  MOL7        0.0276
   4268  H10      102.0920   86.9870  128.6570 H       7  MOL7        0.0266
   4269  H10      102.1370   85.2600  128.6480 H       7  MOL7        0.0266
   4270  H10      104.5840   86.5280  129.7160 H       7  MOL7        0.0270
   4271  H10      104.0420   87.0760  128.2210 H       7  MOL7        0.0270
   4272  H10      105.3790   84.3970  128.7070 H       7  MOL7        0.0377
   4273  H10      105.8070   85.7310  127.9530 H       7  MOL7        0.0377
   4274  H10       96.7140  106.9340  115.9870 H       7  MOL7        0.0263
   4275  H10       95.5880  106.7910  114.7040 H       7  MOL7        0.0263
   4276  H10       97.1960  104.7040  116.0790 H       7  MOL7        0.0265
   4277  H10       96.2570  104.2840  114.6730 H       7  MOL7        0.0265
   4278  H10       94.1800  104.5620  116.0570 H       7  MOL7        0.0265
   4279  H10       95.1450  104.9190  117.4680 H       7  MOL7        0.0265
   4280  H10       96.1350  102.8860  117.5490 H       7  MOL7        0.0265
   4281  H10       96.0560  102.6060  115.8260 H       7  MOL7        0.0265
   4282  H10       93.5320  101.8890  116.3840 H       7  MOL7        0.0265
   4283  H10       94.1860  101.6950  117.9630 H       7  MOL7        0.0265
   4284  H10       96.0850  100.6110  115.8910 H       7  MOL7        0.0265
   4285  H10       94.4830  100.0180  115.5920 H       7  MOL7        0.0265
   4286  H10       94.4990   98.6210  117.2980 H       7  MOL7        0.0265
   4287  H10       94.9280   99.8960  118.4320 H       7  MOL7        0.0265
   4288  H10       97.3210   99.4350  118.1400 H       7  MOL7        0.0265
   4289  H10       96.9890   98.1980  116.9540 H       7  MOL7        0.0265
   4290  H10       95.9170   96.8620  118.5500 H       7  MOL7        0.0266
   4291  H10       95.3290   98.2180  119.4380 H       7  MOL7        0.0266
   4292  H10       97.1330   98.3250  120.8550 H       7  MOL7        0.0298
   4293  H10       98.0730   97.0920  119.9970 H       7  MOL7        0.0298
   4294  H10       96.0300   95.6950  120.1210 H       7  MOL7        0.0697
   4295  H10       95.5130   96.6810  121.4920 H       7  MOL7        0.0697
   4296  H10       97.5720  105.5810  113.3690 H       7  MOL7        0.0230
   4297  H10       98.6090  106.1140  114.6900 H       7  MOL7        0.0230
   4298  H10       97.8450  107.2780  113.6430 H       7  MOL7        0.0230
   4299  H10       97.5340   94.5670  124.1060 H       7  MOL7        0.0411
   4300  H10       99.9890   96.0240  124.5740 H       7  MOL7        0.0238
   4301  H10      100.2430   94.3070  124.5070 H       7  MOL7        0.0238
   4302  H10       99.0820   94.9020  125.5870 H       7  MOL7        0.0238
   4303  H10       99.1360   94.4340  121.5440 H       7  MOL7        0.0273
   4304  H10       97.7600   93.5290  122.0000 H       7  MOL7        0.0273
   4305  H10       97.7600   91.8130  121.4340 H       7  MOL7        0.0240
   4306  H10       98.1490   90.2090  121.9780 H       7  MOL7        0.0240
   4307  H10       98.6320   90.7170  120.3790 H       7  MOL7        0.0240
   4308  H10      100.6610   68.1550  148.1710 H       7  MOL7        0.2951
   4309  H10      101.3440   67.1300  146.8250 H       7  MOL7        0.0377
   4310  H10      100.0200   67.4670  145.6960 H       7  MOL7        0.0377
   4311  H10       99.9270   64.6010  146.1690 H       7  MOL7        0.0270
   4312  H10      101.6270   65.0310  146.0610 H       7  MOL7        0.0270
   4313  H10      101.0080   66.4700  144.0550 H       7  MOL7        0.0266
   4314  H10       99.5090   65.8770  144.1640 H       7  MOL7        0.0266
   4315  H10      100.8610   63.5860  143.3180 H       7  MOL7        0.0276
   4316  H10      102.1880   64.7110  143.5880 H       7  MOL7        0.0276
   4317  H10      100.4290   66.2900  139.7750 H       7  MOL7        0.0385
   4318  H10       99.9390   67.7910  140.5010 H       7  MOL7        0.0385
   4319  H10      100.1870   66.9580  142.4020 H       7  MOL7        0.0284
   4320  H10      101.9270   67.0910  142.2350 H       7  MOL7        0.0284
   4321  H10       95.3700   76.5230  139.0100 H       7  MOL7        0.0276
   4322  H10       94.0500   75.4850  138.5150 H       7  MOL7        0.0276
   4323  H10       94.9070   78.6890  139.2600 H       7  MOL7        0.0240
   4324  H10       93.1920   79.0190  139.3780 H       7  MOL7        0.0240
   4325  H10       94.0930   79.6470  138.0000 H       7  MOL7        0.0240
   4326  H10       93.8840   76.1710  134.9260 H       7  MOL7        0.0735
   4327  H10       94.0910   74.9330  136.1070 H       7  MOL7        0.0735
   4328  H10       94.3470   74.1150  133.9650 H       7  MOL7        0.0765
   4329  H10       96.2570   73.6390  132.8600 H       7  MOL7        0.0266
   4330  H10       97.3060   74.5790  133.9120 H       7  MOL7        0.0266
   4331  H10       96.3200   75.3790  132.6980 H       7  MOL7        0.0266
   4332  H10      101.3850   73.8060  136.0670 H       7  MOL7        0.0421
   4333  H10      101.5680   73.3970  133.0130 H       7  MOL7        0.0284
   4334  H10      102.9280   73.7440  134.2740 H       7  MOL7        0.0284
   4335  H10      102.3330   74.6310  131.7910 H       7  MOL7        0.0385
   4336  H10      103.6250   74.0210  132.5430 H       7  MOL7        0.0385
   4337  H10       99.4150   72.3030  134.5690 H       7  MOL7        0.0276
   4338  H10       99.3920   73.9740  134.3290 H       7  MOL7        0.0276
   4339  H10       98.6210   74.2690  136.8060 H       7  MOL7        0.0266
   4340  H10       99.5450   72.9950  137.2330 H       7  MOL7        0.0266
   4341  H10       97.0160   73.0750  137.4800 H       7  MOL7        0.0270
   4342  H10       97.9580   71.6880  137.5560 H       7  MOL7        0.0270
   4343  H10       96.1650   70.8510  136.5240 H       7  MOL7        0.0377
   4344  H10       97.2630   71.0330  135.1800 H       7  MOL7        0.0377
   4345  H10      100.3560   64.6980  141.2840 H       7  MOL7        0.0421
   4346  H10      111.2280   79.9660  127.0270 H       7  MOL7        0.0540
   4347  H10      112.8050   80.7790  126.8790 H       7  MOL7        0.0540
   4348  H10      114.0560   80.9540  129.6660 H       7  MOL7        0.0280
   4349  H10      114.2610   79.3410  128.9090 H       7  MOL7        0.0280
   4350  H11      113.5870   79.4480  130.5040 H       7  MOL7        0.0280
   4351  H11      108.4360   78.4380  128.8290 H       7  MOL7        0.0735
   4352  H11      109.4820   77.8610  130.1140 H       7  MOL7        0.0735
   4353  H11      107.5450   80.0820  130.1270 H       7  MOL7        0.0765
   4354  H11      106.3880   78.4480  129.6390 H       7  MOL7        0.0266
   4355  H11      106.1190   78.2200  131.3520 H       7  MOL7        0.0266
   4356  H11      107.1840   77.2000  130.4930 H       7  MOL7        0.0266
   4357  H11      104.3200   79.2900  134.8760 H       7  MOL7        0.0421
   4358  H11      104.5060   77.5280  137.1050 H       7  MOL7        0.0284
   4359  H11      102.8730   78.0240  136.8460 H       7  MOL7        0.0284
   4360  H11      104.8260   80.1940  137.0250 H       7  MOL7        0.0385
   4361  H11      104.3380   79.2490  138.5060 H       7  MOL7        0.0385
   4362  H11      105.8410   77.5360  133.9320 H       7  MOL7        0.0276
   4363  H11      106.1260   77.0520  135.4840 H       7  MOL7        0.0276
   4364  H11      106.4910   78.9060  136.5280 H       7  MOL7        0.0266
   4365  H11      105.9640   80.0240  135.4410 H       7  MOL7        0.0266
   4366  H11      108.7400   78.8060  135.6610 H       7  MOL7        0.0270
   4367  H11      108.3210   80.3400  136.2160 H       7  MOL7        0.0270
   4368  H11      110.0890   80.3570  134.7680 H       7  MOL7        0.0377
   4369  H11      108.9290   81.5530  134.3390 H       7  MOL7        0.0377
   4370  H11       98.4080   62.9730  142.1830 H       7  MOL7        0.0540
   4371  H11       98.3540   64.4880  141.0800 H       7  MOL7        0.0540
   4372  H11       98.0670   65.0410  145.2590 H       7  MOL7        0.0280
   4373  H11       98.8440   63.6240  144.5790 H       7  MOL7        0.0280
   4374  H11       97.0830   63.6980  144.6400 H       7  MOL7        0.0280
   4375  H11       96.4140   67.7540  140.3640 H       7  MOL7        0.0735
   4376  H11       96.3950   67.9940  141.9880 H       7  MOL7        0.0735
   4377  H11       98.5170   68.8720  140.0770 H       7  MOL7        0.0765
   4378  H11       96.9240   70.0230  139.3380 H       7  MOL7        0.0266
   4379  H11       97.4350   71.1380  140.5140 H       7  MOL7        0.0266
   4380  H11       95.9780   70.0930  140.8010 H       7  MOL7        0.0266
   4381  H11      105.7980   68.5630  140.0620 H       7  MOL7        0.0421
   4382  H11      105.6160   68.6640  137.9220 H       7  MOL7        0.0284
   4383  H11      103.9920   68.1090  137.8770 H       7  MOL7        0.0284
   4384  H11      104.7340   70.0270  136.6730 H       7  MOL7        0.0385
   4385  H11      104.5190   71.0430  138.1450 H       7  MOL7        0.0385
   4386  H11      103.2940   70.0560  140.2710 H       7  MOL7        0.0276
   4387  H11      104.7370   70.8150  140.7010 H       7  MOL7        0.0276
   4388  H11      104.4750   70.0740  142.8860 H       7  MOL7        0.0266
   4389  H11      103.9540   68.4800  142.4100 H       7  MOL7        0.0266
   4390  H11      102.4100   71.0200  142.1450 H       7  MOL7        0.0270
   4391  H11      102.6880   70.5600  143.7430 H       7  MOL7        0.0270
   4392  H11      100.8040   71.1960  143.2340 H       7  MOL7        0.0377
   4393  H11      100.4180   69.7020  143.8640 H       7  MOL7        0.0377
   4394  H11       82.2640   72.6130  148.5950 H       7  MOL7        0.0263
   4395  H11       81.9990   73.0030  146.8990 H       7  MOL7        0.0263
   4396  H11       83.5920   74.7940  148.7540 H       7  MOL7        0.0265
   4397  H11       83.2820   75.0220  147.0290 H       7  MOL7        0.0265
   4398  H11       84.2600   72.3210  147.6070 H       7  MOL7        0.0265
   4399  H11       85.4090   73.3630  148.1880 H       7  MOL7        0.0265
   4400  H11       85.2910   74.6380  145.9670 H       7  MOL7        0.0265
   4401  H11       84.1020   73.5880  145.4010 H       7  MOL7        0.0265
   4402  H11       85.7220   71.9970  144.6180 H       7  MOL7        0.0265
   4403  H11       86.5810   72.0170  146.0320 H       7  MOL7        0.0265
   4404  H11       87.0620   74.4950  145.2540 H       7  MOL7        0.0265
   4405  H11       86.1630   74.1000  143.8290 H       7  MOL7        0.0265
   4406  H11       88.9550   73.8580  144.7170 H       7  MOL7        0.0265
   4407  H11       88.2170   74.6880  143.4190 H       7  MOL7        0.0265
   4408  H11       89.5000   73.3420  142.3080 H       7  MOL7        0.0265
   4409  H11       88.5130   71.9900  142.5240 H       7  MOL7        0.0265
   4410  H11       90.8780   71.7900  142.9820 H       7  MOL7        0.0266
   4411  H11       90.0660   71.7200  144.5670 H       7  MOL7        0.0266
   4412  H11       92.2550   73.2450  144.2130 H       7  MOL7        0.0298
   4413  H11       90.9720   73.5720  145.3260 H       7  MOL7        0.0298
   4414  H11       91.6290   75.5210  144.1910 H       7  MOL7        0.0697
   4415  H11       90.0440   75.3250  143.6150 H       7  MOL7        0.0697
   4416  H11       80.1570   73.4670  148.3260 H       7  MOL7        0.0230
   4417  H11       80.6770   74.7560  147.2110 H       7  MOL7        0.0230
   4418  H11       81.0640   74.8880  148.9580 H       7  MOL7        0.0230
   4419  H11       91.7130   76.1350  139.6110 H       7  MOL7        0.0411
   4420  H11       93.9600   74.2810  140.1960 H       7  MOL7        0.0238
   4421  H11       92.6230   74.0570  139.1360 H       7  MOL7        0.0238
   4422  H11       92.3950   73.6350  140.7740 H       7  MOL7        0.0238
   4423  H11       94.4000   76.2130  141.0410 H       7  MOL7        0.0273
   4424  H11       93.5250   77.6570  140.6020 H       7  MOL7        0.0273
   4425  H11       91.7770   77.0120  137.8940 H       7  MOL7        0.0240
   4426  H11       92.5440   76.6160  136.3340 H       7  MOL7        0.0240
   4427  H11       92.1500   78.2470  136.7290 H       7  MOL7        0.0240
   4428  H11      121.8500   59.0340  140.3340 H       7  MOL7        0.2951
   4429  H11      120.6150   57.6700  139.0860 H       7  MOL7        0.0377
   4430  H11      121.0200   56.9330  140.6290 H       7  MOL7        0.0377
   4431  H11      121.8480   54.9170  139.6190 H       7  MOL7        0.0270
   4432  H11      121.5450   55.3130  138.0500 H       7  MOL7        0.0270
   4433  H11      119.2530   55.3090  138.3840 H       7  MOL7        0.0266
   4434  H11      119.7910   54.4470  139.9460 H       7  MOL7        0.0266
   4435  H11      118.8370   52.8300  139.3760 H       7  MOL7        0.0276
   4436  H11      118.4490   53.3320  137.7400 H       7  MOL7        0.0276
   4437  H11      113.7010   53.4950  139.7070 H       7  MOL7        0.0385
   4438  H11      114.6320   53.3890  141.2120 H       7  MOL7        0.0385
   4439  H11      116.2100   55.0120  140.2930 H       7  MOL7        0.0284
   4440  H11      115.5100   54.9900  138.7160 H       7  MOL7        0.0284
   4441  H11      112.6020   67.8350  134.9850 H       7  MOL7        0.0276
   4442  H11      112.4930   67.2770  133.3850 H       7  MOL7        0.0276
   4443  H11      116.2730   68.0830  133.7020 H       7  MOL7        0.0240
   4444  H11      115.3100   67.6860  132.3060 H       7  MOL7        0.0240
   4445  H11      116.1620   66.4100  133.2790 H       7  MOL7        0.0240
   4446  H11      115.8320   65.6370  137.3700 H       7  MOL7        0.0735
   4447  H11      114.3510   65.7850  138.3160 H       7  MOL7        0.0735
   4448  H11      114.5440   63.6510  136.2700 H       7  MOL7        0.0765
   4449  H11      115.0360   62.5190  138.7290 H       7  MOL7        0.0266
   4450  H12      115.3620   64.1920  139.1680 H       7  MOL7        0.0266
   4451  H12      116.3640   63.4040  137.9580 H       7  MOL7        0.0266
   4452  H12      109.9460   63.9830  141.2760 H       7  MOL7        0.0421
   4453  H12      110.8180   64.7500  143.8250 H       7  MOL7        0.0284
   4454  H12      111.2860   63.0510  143.8310 H       7  MOL7        0.0284
   4455  H12      108.6340   63.5510  142.6200 H       7  MOL7        0.0385
   4456  H12      108.7620   64.3190  144.2040 H       7  MOL7        0.0385
   4457  H12      112.3040   65.2930  142.4210 H       7  MOL7        0.0276
   4458  H12      110.8780   65.9490  141.6370 H       7  MOL7        0.0276
   4459  H12      113.1820   64.4340  140.2280 H       7  MOL7        0.0266
   4460  H12      113.0210   66.1290  140.3370 H       7  MOL7        0.0266
   4461  H12      111.8960   65.7310  138.2230 H       7  MOL7        0.0270
   4462  H12      110.5550   65.6990  139.3510 H       7  MOL7        0.0270
   4463  H12      110.6340   63.8510  137.6190 H       7  MOL7        0.0377
   4464  H12      110.4800   63.2120  139.2540 H       7  MOL7        0.0377
   4465  H12      117.1240   53.1980  140.4360 H       7  MOL7        0.0412
   4466  H12      115.4160   50.1270  140.3190 H       7  MOL7        0.0341
   4467  H12      114.4220   51.5980  140.3200 H       7  MOL7        0.0341
   4468  H12      115.9170   51.5180  141.3230 H       7  MOL7        0.0341
   4469  H12      107.5030   70.2770  140.7550 H       7  MOL7        0.0540
   4470  H12      106.6090   71.6250  141.6320 H       7  MOL7        0.0540
   4471  H12      106.5570   73.9000  140.2180 H       7  MOL7        0.0280
   4472  H12      105.1620   73.1070  139.4570 H       7  MOL7        0.0280
   4473  H12      106.4820   73.7450  138.4550 H       7  MOL7        0.0280
   4474  H12      107.4540   69.6510  136.4690 H       7  MOL7        0.0735
   4475  H12      109.1510   69.9820  136.6400 H       7  MOL7        0.0735
   4476  H12      107.7720   67.7990  136.2140 H       7  MOL7        0.0765
   4477  H12      109.5080   66.0730  136.3270 H       7  MOL7        0.0266
   4478  H12      110.3060   66.9270  137.5370 H       7  MOL7        0.0266
   4479  H12      110.2320   67.5510  135.8230 H       7  MOL7        0.0266
   4480  H12      106.5720   61.5350  142.7800 H       7  MOL7        0.0421
   4481  H12      104.3570   61.5900  144.1930 H       7  MOL7        0.0284
   4482  H12      104.6320   60.8550  142.6690 H       7  MOL7        0.0284
   4483  H12      102.8950   63.1120  143.2120 H       7  MOL7        0.0385
   4484  H12      102.4970   61.4660  142.9600 H       7  MOL7        0.0385
   4485  H12      105.2280   63.5350  141.2860 H       7  MOL7        0.0276
   4486  H12      106.8500   63.0150  141.1070 H       7  MOL7        0.0276
   4487  H12      107.1770   64.9810  143.0570 H       7  MOL7        0.0266
   4488  H12      105.8320   65.5060  142.0530 H       7  MOL7        0.0266
   4489  H12      108.2290   64.3740  140.6410 H       7  MOL7        0.0270
   4490  H12      108.3930   65.9910  141.2990 H       7  MOL7        0.0270
   4491  H12      106.2890   66.6280  139.9210 H       7  MOL7        0.0377
   4492  H12      106.2700   64.9270  139.4270 H       7  MOL7        0.0377
   4493  H12      122.9350   57.6200  136.1400 H       7  MOL7        0.0540
   4494  H12      122.0430   58.5240  137.4470 H       7  MOL7        0.0540
   4495  H12      124.1460   60.7450  134.6470 H       7  MOL7        0.0280
   4496  H12      122.9080   59.8390  133.7440 H       7  MOL7        0.0280
   4497  H12      124.2160   58.9820  134.4910 H       7  MOL7        0.0280
   4498  H12      120.1820   62.2030  137.0570 H       7  MOL7        0.0735
   4499  H12      119.2750   60.6640  136.9980 H       7  MOL7        0.0735
   4500  H12      120.5400   61.3160  139.4370 H       7  MOL7        0.0765
   4501  H12      118.9300   62.9430  140.4340 H       7  MOL7        0.0266
   4502  H12      118.0160   63.0990  138.9620 H       7  MOL7        0.0266
   4503  H12      119.6330   63.7110  138.9770 H       7  MOL7        0.0266
   4504  H12      112.5620   57.7160  140.6420 H       7  MOL7        0.0421
   4505  H12      111.1530   58.8860  142.9620 H       7  MOL7        0.0284
   4506  H12      110.2250   58.0780  141.7120 H       7  MOL7        0.0284
   4507  H12      111.5760   59.7600  140.1270 H       7  MOL7        0.0385
   4508  H12      112.3800   60.2370  141.5840 H       7  MOL7        0.0385
   4509  H12      114.1640   57.7810  142.9230 H       7  MOL7        0.0276
   4510  H12      113.4560   59.3150  142.8010 H       7  MOL7        0.0276
   4511  H12      113.9090   59.0290  140.1530 H       7  MOL7        0.0266
   4512  H12      115.1240   57.9060  140.7530 H       7  MOL7        0.0266
   4513  H12      115.6620   60.1510  142.1450 H       7  MOL7        0.0270
   4514  H12      114.9690   60.8580  140.6610 H       7  MOL7        0.0270
   4515  H12      117.0520   58.7310  140.2870 H       7  MOL7        0.0377
   4516  H12      117.6470   59.9570  141.3600 H       7  MOL7        0.0377
   4517  H12      117.1950   76.0100  122.7600 H       7  MOL7        0.0263
   4518  H12      117.1480   76.6780  124.3800 H       7  MOL7        0.0263
   4519  H12      114.8450   75.9370  122.7160 H       7  MOL7        0.0265
   4520  H12      114.6650   77.3350  123.7880 H       7  MOL7        0.0265
   4521  H12      115.4210   76.0580  125.7240 H       7  MOL7        0.0265
   4522  H12      116.0980   74.8090  124.7200 H       7  MOL7        0.0265
   4523  H12      114.0960   74.0560  123.9110 H       7  MOL7        0.0265
   4524  H12      113.2490   75.4620  124.6780 H       7  MOL7        0.0265
   4525  H12      113.6770   74.5840  126.8660 H       7  MOL7        0.0265
   4526  H12      114.3260   73.1250  126.2000 H       7  MOL7        0.0265
   4527  H12      112.1840   72.6560  124.9670 H       7  MOL7        0.0265
   4528  H12      111.7010   74.2990  125.0900 H       7  MOL7        0.0265
   4529  H12      110.7320   72.2910  126.5200 H       7  MOL7        0.0265
   4530  H12      110.4850   73.9910  126.7980 H       7  MOL7        0.0265
   4531  H12      112.7940   73.3980  128.4210 H       7  MOL7        0.0265
   4532  H12      111.7540   72.0010  128.4990 H       7  MOL7        0.0265
   4533  H12      109.8590   73.7200  128.8460 H       7  MOL7        0.0266
   4534  H12      111.3030   74.4830  129.6870 H       7  MOL7        0.0266
   4535  H12      111.6030   72.0600  130.3930 H       7  MOL7        0.0298
   4536  H12      109.8640   71.8520  130.0840 H       7  MOL7        0.0298
   4537  H12      109.5230   72.6750  132.1640 H       7  MOL7        0.0697
   4538  H12      110.5980   74.0750  132.0180 H       7  MOL7        0.0697
   4539  H12      117.4630   78.0530  121.8100 H       7  MOL7        0.0230
   4540  H12      118.4490   77.9480  123.2260 H       7  MOL7        0.0230
   4541  H12      117.0060   78.9960  123.2370 H       7  MOL7        0.0230
   4542  H12      113.4050   71.2220  134.1560 H       7  MOL7        0.0411
   4543  H12      114.8820   71.1610  132.1270 H       7  MOL7        0.0238
   4544  H12      113.9960   72.6190  132.3850 H       7  MOL7        0.0238
   4545  H12      113.4120   71.6330  131.1860 H       7  MOL7        0.0238
   4546  H12      113.0250   68.8640  132.2210 H       7  MOL7        0.0273
   4547  H12      111.7430   69.1880  133.3950 H       7  MOL7        0.0273
   4548  H12      113.1590   65.5230  134.6100 H       7  MOL7        0.0240
   4549  H12      114.7510   64.9830  134.0710 H       7  MOL7        0.0240
   4550  H13      113.6230   65.7070  132.8880 H       7  MOL7        0.0240
   4551  O65      107.9780   78.9640  156.5180 O.2     8  MOL8       -0.2510
   4552  O65      106.6800   80.4520  155.5970 O.3     8  MOL8       -0.4806
   4553  C65      106.9620   79.1590  155.9040 C.2     8  MOL8        0.3047
   4554  C65      105.8050   78.2690  155.2560 C.3     8  MOL8        0.0448
   4555  C65      105.0050   76.9370  155.6280 C.3     8  MOL8       -0.0430
   4556  C65      103.4020   76.5750  155.5840 C.3     8  MOL8       -0.0515
   4557  C65      103.0280   75.1640  156.3560 C.3     8  MOL8       -0.0403
   4558  S65       99.5470   76.6590  160.3370 S.3     8  MOL8       -0.0928
   4559  C65       99.9740   75.0950  159.0740 C.3     8  MOL8        0.0050
   4560  C66      100.5400   74.7080  157.5610 C.3     8  MOL8       -0.0305
   4561  C66       99.9900   89.3690  155.4350 C.2     8  MOL8        0.3129
   4562  C66       98.8190   90.4070  155.7870 C.3     8  MOL8        0.0622
   4563  C66       98.2580   90.5560  157.2130 C.3     8  MOL8       -0.0370
   4564  C66       99.2680   91.8300  155.6100 C.3     8  MOL8       -0.0497
   4565  O66      101.0780   89.3140  155.9350 O.2     8  MOL8       -0.2502
   4566  O66       99.5650   88.5120  154.4350 O.3     8  MOL8       -0.4605
   4567  C66      100.2500   87.3940  153.7330 C.3     8  MOL8        0.1290
   4568  C66       99.5660   86.0130  153.4420 C.3     8  MOL8        0.1341
   4569  C66       99.6040   85.3200  154.7450 C.3     8  MOL8       -0.0244
   4570  C67       94.8250   79.2890  153.5030 C.3     8  MOL8        0.0162
   4571  C67       94.5620   78.6920  155.0050 C.3     8  MOL8       -0.0305
   4572  C67       93.7130   78.6570  156.3790 C.3     8  MOL8        0.0050
   4573  S67       91.8480   78.4790  156.5810 S.3     8  MOL8       -0.0928
   4574  C67       94.8870   80.4040  152.2330 C.3     8  MOL8       -0.0403
   4575  C67       94.9140   81.7730  151.3360 C.3     8  MOL8       -0.0515
   4576  C67       95.3690   83.3060  151.0660 C.3     8  MOL8       -0.0429
   4577  C67       96.5320   84.4190  151.1890 C.3     8  MOL8        0.0450
   4578  C67       98.0170   84.8630  151.6020 C.2     8  MOL8        0.3074
   4579  O67       98.2970   85.4670  152.8030 O.3     8  MOL8       -0.4582
   4580  O68       98.8580   84.7380  150.7740 O.2     8  MOL8       -0.2508
   4581  C68      101.9660   74.2120  157.3650 C.3     8  MOL8        0.0162
   4582  C68       92.2020   90.8090  158.7090 C.2     8  MOL8        0.3344
   4583  C68       90.8160   91.4310  158.5210 C.2     8  MOL8        0.0264
   4584  C68       89.6810   90.7440  158.7140 C.2     8  MOL8       -0.0890
   4585  C68       90.5850   92.8340  158.0260 C.3     8  MOL8       -0.0335
   4586  O68       93.1760   91.5010  158.5520 O.2     8  MOL8       -0.2453
   4587  O68       92.3290   89.4830  159.0420 O.3     8  MOL8       -0.4577
   4588  C68       93.3210   88.3680  159.0100 C.3     8  MOL8        0.1293
   4589  C68       93.3970   87.0280  158.1210 C.3     8  MOL8        0.1341
   4590  C69       94.4680   86.2990  158.9860 C.3     8  MOL8       -0.0244
   4591  C69       89.6320   79.0980  158.5210 C.3     8  MOL8        0.0162
   4592  C69       88.4380   78.2210  158.1550 C.3     8  MOL8       -0.0313
   4593  C69       87.2600   79.1610  158.1420 C.3     8  MOL8       -0.0056
   4594  S69       86.3440   79.2250  156.6210 S.3     8  MOL8       -0.1641
   4595  C69       89.2650   80.3540  159.5760 C.3     8  MOL8       -0.0403
   4596  C69       89.2820   82.0490  159.5340 C.3     8  MOL8       -0.0515
   4597  C69       89.4150   83.6560  158.9990 C.3     8  MOL8       -0.0429
   4598  C69       89.7690   85.0370  158.0360 C.3     8  MOL8        0.0450
   4599  C69       90.8700   85.8040  156.9790 C.2     8  MOL8        0.3074
   4600  O70       92.1900   86.3870  157.3100 O.3     8  MOL8       -0.4582
   4601  O70       90.5640   85.9430  155.8440 O.2     8  MOL8       -0.2508
   4602  C70       85.4500   80.8270  156.7280 C.3     8  MOL8       -0.0181
   4603  S70       91.2270   78.1420  158.5560 S.3     8  MOL8       -0.0897
   4604  C70      108.1410   82.5540  152.9330 C.2     8  MOL8        0.3344
   4605  C70      108.9230   82.1580  151.7760 C.2     8  MOL8        0.0264
   4606  C70      108.2670   81.7150  150.6850 C.2     8  MOL8       -0.0890
   4607  C70      110.3920   82.3730  151.8450 C.3     8  MOL8       -0.0335
   4608  O70      108.6250   82.8890  153.9900 O.2     8  MOL8       -0.2453
   4609  O70      106.8040   82.6010  152.7930 O.3     8  MOL8       -0.4577
   4610  C71      106.1660   83.8110  153.1290 C.3     8  MOL8        0.1293
   4611  C71      105.9790   84.0490  154.5850 C.3     8  MOL8        0.1341
   4612  C71      105.1520   85.3120  154.7860 C.3     8  MOL8       -0.0244
   4613  S71       99.7850   78.7280  159.9400 S.3     8  MOL8       -0.0897
   4614  C71      100.4840   79.3770  158.2430 C.3     8  MOL8        0.0162
   4615  C71      100.3420   79.0050  156.6630 C.3     8  MOL8       -0.0305
   4616  C71       99.4480   78.5560  155.3820 C.3     8  MOL8        0.0050
   4617  S71       97.9730   78.3570  154.2680 S.3     8  MOL8       -0.0928
   4618  C71      100.7630   80.8130  158.6650 C.3     8  MOL8       -0.0403
   4619  C71      101.7940   81.6670  157.8980 C.3     8  MOL8       -0.0515
   4620  C72      103.2860   82.0620  158.0870 C.3     8  MOL8       -0.0429
   4621  C72      104.4750   81.9270  157.0900 C.3     8  MOL8        0.0450
   4622  C72      104.4770   82.4590  155.6690 C.2     8  MOL8        0.3074
   4623  O72      105.7160   82.9450  155.4620 O.3     8  MOL8       -0.4582
   4624  O72      103.5790   82.5330  154.8980 O.2     8  MOL8       -0.2508
   4625  S72       96.3210   78.2010  153.1640 S.3     8  MOL8       -0.0897
   4626  C72       93.0820  105.3430  160.1430 C.3     8  MOL8       -0.0559
   4627  C72       93.1330  103.9970  159.4640 C.3     8  MOL8       -0.0533
   4628  C72       92.0690  102.8970  159.5290 C.3     8  MOL8       -0.0531
   4629  C72       92.6710  101.7280  158.7400 C.3     8  MOL8       -0.0531
   4630  C73       91.9370  100.6850  157.8960 C.3     8  MOL8       -0.0531
   4631  C73       92.8960  100.1620  156.7890 C.3     8  MOL8       -0.0531
   4632  C73       93.1200   98.6640  156.9100 C.3     8  MOL8       -0.0531
   4633  C73       94.5230   98.0670  156.9830 C.3     8  MOL8       -0.0530
   4634  C73       94.2730   96.5740  157.1080 C.3     8  MOL8       -0.0500
   4635  C73       95.0390   95.5730  157.9290 C.3     8  MOL8       -0.0185
   4636  C73       94.5280   94.2300  157.5370 C.3     8  MOL8        0.0925
   4637  C73       94.3450  106.1160  159.7300 C.3     8  MOL8       -0.0653
   4638  C73       96.5160   91.5400  158.8740 C.3     8  MOL8        0.0537
   4639  C73       95.6320   92.7490  159.0130 C.2     8  MOL8        0.3099
   4640  O74       95.5180   93.2530  157.7710 O.3     8  MOL8       -0.4644
   4641  O74       95.0150   93.2300  159.9320 O.2     8  MOL8       -0.2505
   4642  C74       97.4370   90.9870  159.9770 C.3     8  MOL8       -0.0523
   4643  C74       97.1800   91.6200  157.4610 C.3     8  MOL8       -0.0394
   4644  C74       97.7080   90.2560  154.8030 C.3     8  MOL8       -0.0497
   4645  O74      100.0860   54.4610  156.7840 O.2     8  MOL8       -0.2510
   4646  O74      101.1200   55.0620  158.7000 O.3     8  MOL8       -0.4806
   4647  C74      101.0130   54.9550  157.3480 C.2     8  MOL8        0.3047
   4648  C74      102.1800   55.6660  156.7080 C.3     8  MOL8        0.0448
   4649  C74      102.7630   55.1420  155.3780 C.3     8  MOL8       -0.0430
   4650  C75      102.7720   56.3120  154.4200 C.3     8  MOL8       -0.0515
   4651  C75      103.6980   56.4130  153.2200 C.3     8  MOL8       -0.0403
   4652  S75      104.1550   61.4460  153.3050 S.3     8  MOL8       -0.0928
   4653  C75      103.0850   60.1460  152.7520 C.3     8  MOL8        0.0050
   4654  C75      103.3150   58.8630  153.4720 C.3     8  MOL8       -0.0305
   4655  C75       95.6140   69.6170  155.9670 C.2     8  MOL8        0.3129
   4656  C75       94.4140   68.7360  156.3580 C.3     8  MOL8        0.0622
   4657  C75       94.9300   67.3190  156.4920 C.3     8  MOL8       -0.0370
   4658  C75       94.1680   69.1160  157.8180 C.3     8  MOL8       -0.0497
   4659  O75       95.9260   70.5180  156.6930 O.2     8  MOL8       -0.2502
   4660  O76       96.3710   69.2340  154.8550 O.3     8  MOL8       -0.4605
   4661  C76       95.8320   69.1430  153.5230 C.3     8  MOL8        0.1290
   4662  C76       96.7260   69.1070  152.2770 C.3     8  MOL8        0.1341
   4663  C76       97.8840   69.9800  151.8120 C.3     8  MOL8       -0.0244
   4664  C76      102.6930   68.1920  153.2520 C.3     8  MOL8        0.0162
   4665  C76      103.4460   69.6700  152.9370 C.3     8  MOL8       -0.0305
   4666  C76      104.2360   71.1290  152.9160 C.3     8  MOL8        0.0050
   4667  S76      104.9180   72.4580  154.0070 S.3     8  MOL8       -0.0928
   4668  C76      101.2360   68.1380  152.8090 C.3     8  MOL8       -0.0403
   4669  C76      100.3150   67.1490  153.6320 C.3     8  MOL8       -0.0515
   4670  C77       99.2370   66.1730  153.0570 C.3     8  MOL8       -0.0429
   4671  C77       98.6200   66.1510  151.6430 C.3     8  MOL8        0.0450
   4672  C77       97.6390   67.1440  151.2560 C.2     8  MOL8        0.3074
   4673  O77       97.4110   67.8620  152.3610 O.3     8  MOL8       -0.4582
   4674  O77       97.1340   67.3210  150.1710 O.2     8  MOL8       -0.2508
   4675  S77      105.4700   58.1360  151.9670 S.3     8  MOL8       -0.0897
   4676  C77      103.7660   57.7750  152.5300 C.3     8  MOL8        0.0162
   4677  C77      111.8230   77.2540  155.5750 C.2     8  MOL8        0.3344
   4678  C77      112.7990   78.3030  155.6730 C.2     8  MOL8        0.0264
   4679  C77      112.6220   79.4390  154.9830 C.2     8  MOL8       -0.0890
   4680  C78      113.9530   77.9580  156.5240 C.3     8  MOL8       -0.0335
   4681  O78      112.0860   76.0970  155.8190 O.2     8  MOL8       -0.2453
   4682  O78      110.5840   77.6370  155.2190 O.3     8  MOL8       -0.4577
   4683  C78      109.7180   76.6160  154.8120 C.3     8  MOL8        0.1293
   4684  C78      108.5670   76.2710  155.6570 C.3     8  MOL8        0.1341
   4685  C78      107.6550   75.4520  154.6310 C.3     8  MOL8       -0.0244
   4686  C78      104.6750   72.0660  157.2940 C.3     8  MOL8        0.0162
   4687  C78      104.1080   71.0020  158.2720 C.3     8  MOL8       -0.0305
   4688  C78      103.9600   71.3200  159.7290 C.3     8  MOL8        0.0050
   4689  S78      102.2970   71.8260  160.0340 S.3     8  MOL8       -0.0928
   4690  C79      106.1790   72.0720  157.2520 C.3     8  MOL8       -0.0403
   4691  C79      106.6800   72.6390  158.6510 C.3     8  MOL8       -0.0515
   4692  C79      108.0800   73.2420  159.2500 C.3     8  MOL8       -0.0429
   4693  C79      108.9570   74.6530  159.2150 C.3     8  MOL8        0.0450
   4694  C79      109.6050   75.5490  158.0360 C.2     8  MOL8        0.3074
   4695  O79      108.6830   76.0440  157.1390 O.3     8  MOL8       -0.4582
   4696  O79      110.7940   75.6640  157.9590 O.2     8  MOL8       -0.2508
   4697  S79      102.5890   73.5630  158.9990 S.3     8  MOL8       -0.0897
   4698  S79      103.8080   72.5630  155.7110 S.3     8  MOL8       -0.0897
   4699  C79      100.2350   57.7380  153.0840 C.2     8  MOL8        0.3344
   4700  C80      100.5960   56.4510  152.4730 C.2     8  MOL8        0.0264
   4701  C80      101.1050   56.6100  151.2710 C.2     8  MOL8       -0.0890
   4702  C80      100.5690   55.0850  153.1100 C.3     8  MOL8       -0.0335
   4703  O80       99.9480   57.8060  154.2500 O.2     8  MOL8       -0.2453
   4704  O80      100.1980   58.9100  152.3540 O.3     8  MOL8       -0.4577
   4705  C80       99.2950   59.8330  152.9500 C.3     8  MOL8        0.1293
   4706  C80       99.8630   60.8980  153.7760 C.3     8  MOL8        0.1341
   4707  C80       98.7830   61.9870  153.9520 C.3     8  MOL8       -0.0244
   4708  S80      106.0380   60.6400  153.3940 S.3     8  MOL8       -0.0897
   4709  C80      106.6440   62.0470  154.3590 C.3     8  MOL8        0.0162
   4710  C81      106.6520   63.2130  153.3290 C.3     8  MOL8       -0.0305
   4711  C81      106.0210   64.5740  153.5670 C.3     8  MOL8        0.0050
   4712  S81      104.3020   64.6460  152.8890 S.3     8  MOL8       -0.0928
   4713  C81      105.7880   62.1520  155.6240 C.3     8  MOL8       -0.0403
   4714  C81      105.2850   60.8670  156.3360 C.3     8  MOL8       -0.0515
   4715  C81      103.7830   60.8070  156.8190 C.3     8  MOL8       -0.0429
   4716  C81      102.2590   60.5350  156.6070 C.3     8  MOL8        0.0450
   4717  C81      101.2970   61.1610  155.6290 C.2     8  MOL8        0.3074
   4718  O81      100.6730   60.2870  154.8150 O.3     8  MOL8       -0.4582
   4719  O81      100.9380   62.2960  155.6920 O.2     8  MOL8       -0.2508
   4720  S82      103.0160   66.3020  152.8590 S.3     8  MOL8       -0.0897
   4721  C82       82.9020   57.8880  158.1030 C.3     8  MOL8       -0.0559
   4722  C82       83.9480   58.6250  158.8940 C.3     8  MOL8       -0.0533
   4723  C82       85.3100   58.3100  158.2890 C.3     8  MOL8       -0.0531
   4724  C82       85.8090   59.5330  157.5210 C.3     8  MOL8       -0.0531
   4725  C82       87.1220   59.4670  156.6980 C.3     8  MOL8       -0.0531
   4726  C82       87.7610   60.7920  156.9820 C.3     8  MOL8       -0.0531
   4727  C82       89.1510   61.3630  156.8450 C.3     8  MOL8       -0.0531
   4728  C82       90.2100   61.3400  155.7860 C.3     8  MOL8       -0.0530
   4729  C82       91.4770   60.6900  156.2680 C.3     8  MOL8       -0.0500
   4730  C83       92.0100   61.2170  157.6030 C.3     8  MOL8       -0.0185
   4731  C83       91.6330   62.6330  158.0150 C.3     8  MOL8        0.0925
   4732  C83       81.5060   58.1610  158.5170 C.3     8  MOL8       -0.0653
   4733  C83       93.0990   65.6610  156.6880 C.3     8  MOL8        0.0537
   4734  C83       92.1980   64.8900  157.5910 C.2     8  MOL8        0.3099
   4735  O83       92.2420   63.6050  157.1820 O.3     8  MOL8       -0.4644
   4736  O83       91.5420   65.3020  158.5230 O.2     8  MOL8       -0.2505
   4737  C83       93.8780   64.8540  155.6470 C.3     8  MOL8       -0.0523
   4738  C83       94.1680   66.4010  157.4540 C.3     8  MOL8       -0.0394
   4739  C83       93.2190   68.9970  155.4450 C.3     8  MOL8       -0.0497
   4740  O84      127.5860   55.9790  150.0220 O.2     8  MOL8       -0.2510
   4741  O84      126.2330   56.3320  151.7820 O.3     8  MOL8       -0.4806
   4742  C84      126.5200   55.8560  150.5310 C.2     8  MOL8        0.3047
   4743  C84      125.2760   55.2190  149.9160 C.3     8  MOL8        0.0448
   4744  C84      125.4980   54.5420  148.5120 C.3     8  MOL8       -0.0430
   4745  C84      124.4220   53.8630  147.5030 C.3     8  MOL8       -0.0516
   4746  C84      123.3120   53.1790  146.5260 C.3     8  MOL8       -0.0411
   4747  S84      118.2950   52.8850  148.3280 S.3     8  MOL8       -0.0928
   4748  C84      119.2000   52.0420  146.9810 C.3     8  MOL8        0.0049
   4749  C84      120.4710   52.9260  146.9680 C.3     8  MOL8       -0.0313
   4750  C85      117.4960   64.6410  152.4250 C.2     8  MOL8        0.3129
   4751  C85      117.0120   65.6680  151.4320 C.3     8  MOL8        0.0622
   4752  C85      115.5710   66.2400  151.5460 C.3     8  MOL8       -0.0370
   4753  C85      118.1810   66.5490  151.1910 C.3     8  MOL8       -0.0497
   4754  O85      118.5110   64.6930  153.0760 O.2     8  MOL8       -0.2502
   4755  O85      116.6750   63.5560  152.3430 O.3     8  MOL8       -0.4605
   4756  C85      117.3260   62.3310  152.6280 C.3     8  MOL8        0.1290
   4757  C85      117.3310   61.3240  151.5500 C.3     8  MOL8        0.1341
   4758  C85      118.2360   60.2540  152.1180 C.3     8  MOL8       -0.0244
   4759  C85      113.4380   57.7130  153.8850 C.3     8  MOL8        0.0162
   4760  C86      113.0610   56.5570  154.8070 C.3     8  MOL8       -0.0305
   4761  C86      111.6670   56.0780  154.4600 C.3     8  MOL8        0.0050
   4762  S86      111.3800   54.4320  153.8560 S.3     8  MOL8       -0.0928
   4763  C86      113.9340   58.8570  154.7040 C.3     8  MOL8       -0.0403
   4764  C86      114.8210   59.8760  154.0080 C.3     8  MOL8       -0.0515
   4765  C86      114.0410   60.6100  152.9140 C.3     8  MOL8       -0.0429
   4766  C86      114.0650   59.9200  151.5490 C.3     8  MOL8        0.0450
   4767  C86      115.4910   59.7140  151.1990 C.2     8  MOL8        0.3074
   4768  O86      115.9740   60.9400  151.4410 O.3     8  MOL8       -0.4582
   4769  O86      116.0940   58.7480  150.8020 O.2     8  MOL8       -0.2508
   4770  S87      121.7690   51.4950  144.9210 S.3     8  MOL8       -0.1607
   4771  C87      121.8690   52.4670  146.4450 C.3     8  MOL8        0.0058
   4772  C87      120.7680   50.1040  145.3790 C.3     8  MOL8       -0.0178
   4773  C87      108.8640   65.1020  155.5200 C.2     8  MOL8        0.3344
   4774  C87      108.1030   64.6870  156.7030 C.2     8  MOL8        0.0264
   4775  C87      108.2320   63.4220  157.1200 C.2     8  MOL8       -0.0890
   4776  C87      107.1880   65.6800  157.3690 C.3     8  MOL8       -0.0335
   4777  O87      108.7030   66.2170  155.0770 O.2     8  MOL8       -0.2453
   4778  O87      109.7200   64.2300  154.8790 O.3     8  MOL8       -0.4577
   4779  C87      110.2660   64.7460  153.6560 C.3     8  MOL8        0.1293
   4780  C88      110.6840   63.6940  152.6470 C.3     8  MOL8        0.1341
   4781  C88      112.1340   63.5170  152.0910 C.3     8  MOL8       -0.0244
   4782  C88      108.8890   55.4700  152.6110 C.3     8  MOL8        0.0162
   4783  C88      107.6240   54.8080  151.9890 C.3     8  MOL8       -0.0305
   4784  C88      106.2590   55.3550  151.6280 C.3     8  MOL8        0.0050
   4785  S88      105.9590   56.7830  150.5570 S.3     8  MOL8       -0.0928
   4786  C88      108.9740   57.0060  152.5190 C.3     8  MOL8       -0.0403
   4787  C88      109.1590   57.8800  153.7530 C.3     8  MOL8       -0.0515
   4788  C88      110.1190   59.0220  153.4490 C.3     8  MOL8       -0.0429
   4789  C88      109.4090   60.1600  152.7640 C.3     8  MOL8        0.0450
   4790  C89      110.4170   61.2220  152.4340 C.2     8  MOL8        0.3074
   4791  O89      110.0210   62.4280  152.9470 O.3     8  MOL8       -0.4582
   4792  O89      111.4040   60.9950  151.7890 O.2     8  MOL8       -0.2508
   4793  S89      109.3990   54.6860  154.1710 S.3     8  MOL8       -0.0897
   4794  C89      125.5930   60.1630  150.6140 C.2     8  MOL8        0.3344
   4795  C89      126.5260   59.8950  149.5280 C.2     8  MOL8        0.0264
   4796  C89      126.5220   58.6220  149.1540 C.2     8  MOL8       -0.0890
   4797  C89      127.3800   60.9340  148.8860 C.3     8  MOL8       -0.0335
   4798  O89      125.5740   61.2200  151.2060 O.2     8  MOL8       -0.2453
   4799  O89      124.6890   59.1670  150.9300 O.3     8  MOL8       -0.4577
   4800  C90      123.3390   59.5910  151.1170 C.3     8  MOL8        0.1293
   4801  C90      122.7230   58.7460  152.1730 C.3     8  MOL8        0.1341
   4802  C90      121.8300   59.4250  153.2480 C.3     8  MOL8       -0.0244
   4803  S90      116.6600   51.9720  149.1960 S.3     8  MOL8       -0.0897
   4804  C90      116.3010   53.5570  150.0070 C.3     8  MOL8        0.0162
   4805  C90      114.8800   53.8960  150.4490 C.3     8  MOL8       -0.0305
   4806  C90      114.9180   55.3540  150.8490 C.3     8  MOL8        0.0050
   4807  S90      113.4470   55.9610  151.6670 S.3     8  MOL8       -0.0928
   4808  C90      117.3130   53.8220  151.1110 C.3     8  MOL8       -0.0403
   4809  C90      118.2140   54.9940  150.7000 C.3     8  MOL8       -0.0515
   4810  C91      118.8590   55.8610  151.7670 C.3     8  MOL8       -0.0429
   4811  C91      120.3360   56.1890  151.5600 C.3     8  MOL8        0.0450
   4812  C91      120.8710   57.5870  151.4110 C.2     8  MOL8        0.3074
   4813  O91      122.1740   57.4930  151.7560 O.3     8  MOL8       -0.4582
   4814  O91      120.3630   58.6250  151.0930 O.2     8  MOL8       -0.2508
   4815  S91      114.6540   57.1950  152.7170 S.3     8  MOL8       -0.0897
   4816  C91      118.2790   80.2700  150.7510 C.3     8  MOL8       -0.0559
   4817  C91      116.9070   79.7740  150.3460 C.3     8  MOL8       -0.0533
   4818  C91      116.9830   78.2600  150.5670 C.3     8  MOL8       -0.0531
   4819  C91      115.9430   77.5940  149.7510 C.3     8  MOL8       -0.0531
   4820  C92      115.5930   76.1620  149.9910 C.3     8  MOL8       -0.0531
   4821  C92      114.3310   75.9560  149.1540 C.3     8  MOL8       -0.0531
   4822  C92      113.3510   74.8650  149.5550 C.3     8  MOL8       -0.0531
   4823  C92      113.7440   73.7930  150.5770 C.3     8  MOL8       -0.0530
   4824  C92      112.6170   73.3610  151.4670 C.3     8  MOL8       -0.0500
   4825  C92      112.5360   71.8690  151.5200 C.3     8  MOL8       -0.0185
   4826  C92      112.1460   71.1740  152.7950 C.3     8  MOL8        0.0925
   4827  C92      118.7000   81.5630  151.3940 C.3     8  MOL8       -0.0653
   4828  C92      114.9250   68.8390  152.9090 C.3     8  MOL8        0.0537
   4829  C92      113.4770   69.1120  153.1480 C.2     8  MOL8        0.3099
   4830  O93      113.3270   70.4350  153.0610 O.3     8  MOL8       -0.4644
   4831  O93      112.6190   68.3080  153.3910 O.2     8  MOL8       -0.2505
   4832  C93      115.7060   70.1780  152.8310 C.3     8  MOL8       -0.0523
   4833  C93      115.0720   67.7040  151.7870 C.3     8  MOL8       -0.0394
   4834  C93      116.8770   64.8180  150.1920 C.3     8  MOL8       -0.0497
   4835 5H93      105.9340   80.5020  154.9980 H       8  MOL8        0.2951
   4836 6H93      106.3520   78.0310  154.3550 H       8  MOL8        0.0377
   4837 7H93      105.1520   79.0780  155.0130 H       8  MOL8        0.0377
   4838 8H93      105.4020   76.6130  156.5620 H       8  MOL8        0.0270
   4839 9H93      105.3600   76.1740  154.9150 H       8  MOL8        0.0270
   4840 0H94      103.3190   76.2420  154.5310 H       8  MOL8        0.0266
   4841 1H94      102.6450   77.3480  155.5510 H       8  MOL8        0.0266
   4842 2H94      104.0250   74.7430  156.3980 H       8  MOL8        0.0276
   4843 3H94      102.5150   74.7680  155.4550 H       8  MOL8        0.0276
   4844 4H94       98.9930   74.6410  159.1210 H       8  MOL8        0.0385
   4845 5H94      100.5550   74.4770  159.7240 H       8  MOL8        0.0385
   4846 6H94      100.4230   75.2720  156.6200 H       8  MOL8        0.0284
   4847 7H94       99.9310   73.8330  157.3750 H       8  MOL8        0.0284
   4848 8H94       99.1510   90.7110  157.8000 H       8  MOL8        0.0276
   4849 9H94       97.7470   89.7450  157.7030 H       8  MOL8        0.0276
   4850 0H95      100.2480   91.9160  155.2210 H       8  MOL8        0.0240
   4851 1H95       99.3080   92.4370  156.5000 H       8  MOL8        0.0240
   4852 2H95       98.5960   92.3550  154.9430 H       8  MOL8        0.0240
   4853 3H95      100.6910   87.7460  152.7950 H       8  MOL8        0.0735
   4854 4H95      101.1300   87.1030  154.3380 H       8  MOL8        0.0735
   4855 5H95      100.3750   85.5220  152.9490 H       8  MOL8        0.0765
   4856 6H95       99.2130   84.3640  154.4640 H       8  MOL8        0.0266
   4857 7H95       98.9790   85.6240  155.5680 H       8  MOL8        0.0266
   4858 8H95      100.6250   85.3790  155.0930 H       8  MOL8        0.0266
   4859 9H95       94.2490   78.5580  152.8970 H       8  MOL8        0.0421
   4860 0H96       95.5550   78.7270  155.4990 H       8  MOL8        0.0284
   4861 1H96       94.5180   77.6480  154.6680 H       8  MOL8        0.0284
   4862 2H96       94.0770   79.3900  157.1040 H       8  MOL8        0.0385
   4863 3H96       94.1930   77.7630  156.7470 H       8  MOL8        0.0385
   4864 4H96       95.9230   80.1930  152.0630 H       8  MOL8        0.0276
   4865 5H96       94.4610   79.7660  151.4480 H       8  MOL8        0.0276
   4866 6H96       93.8470   81.9600  151.0990 H       8  MOL8        0.0266
   4867 7H96       95.3010   81.2620  150.4380 H       8  MOL8        0.0266
   4868 8H96       94.4750   83.8980  151.3580 H       8  MOL8        0.0270
   4869 9H96       95.2600   83.2850  149.9650 H       8  MOL8        0.0270
   4870 0H97       95.9830   85.3150  150.8570 H       8  MOL8        0.0377
   4871 1H97       96.9650   84.0810  150.2330 H       8  MOL8        0.0377
   4872 2H97      101.7720   73.3850  156.6670 H       8  MOL8        0.0421
   4873 3H97       88.7120   91.1780  158.4710 H       8  MOL8        0.0540
   4874 4H97       89.6470   89.6910  158.9690 H       8  MOL8        0.0540
   4875 5H97       89.9240   93.3820  158.7060 H       8  MOL8        0.0280
   4876 6H97       90.0100   92.8080  157.1010 H       8  MOL8        0.0280
   4877 7H97       91.5220   93.3560  157.8220 H       8  MOL8        0.0280
   4878 8H97       94.3250   88.7920  159.0150 H       8  MOL8        0.0735
   4879 9H97       93.1280   87.9450  160.0020 H       8  MOL8        0.0735
   4880 0H98       93.9180   87.1720  157.2140 H       8  MOL8        0.0765
   4881 1H98       95.2460   87.0590  159.1790 H       8  MOL8        0.0266
   4882 2H98       95.0350   85.4860  158.5290 H       8  MOL8        0.0266
   4883 3H98       94.1460   85.9590  159.9780 H       8  MOL8        0.0266
   4884 4H98       89.7200   79.3600  157.4820 H       8  MOL8        0.0421
   4885 5H98       88.2710   77.4340  158.8690 H       8  MOL8        0.0284
   4886 6H98       88.6000   77.7580  157.1650 H       8  MOL8        0.0284
   4887 7H98       87.6010   80.1980  158.1590 H       8  MOL8        0.0377
   4888 8H98       86.7240   78.9120  159.0570 H       8  MOL8        0.0377
   4889 9H98       88.2370   80.1630  159.9320 H       8  MOL8        0.0276
   4890 0H99       89.7990   80.2570  160.5220 H       8  MOL8        0.0276
   4891 1H99       90.2530   82.1030  160.0340 H       8  MOL8        0.0266
   4892 2H99       88.5940   82.2730  160.3780 H       8  MOL8        0.0266
   4893 3H99       89.9300   83.9650  159.9370 H       8  MOL8        0.0270
   4894 4H99       88.4870   83.9340  159.4180 H       8  MOL8        0.0270
   4895 5H99       89.2980   85.7700  158.6490 H       8  MOL8        0.0377
   4896 6H99       89.1380   84.9670  157.1760 H       8  MOL8        0.0377
   4897 7H99       84.3770   80.7780  156.9600 H       8  MOL8        0.0340
   4898 8H99       85.4630   81.3350  155.7720 H       8  MOL8        0.0340
   4899 9H99       85.9370   81.5040  157.4210 H       8  MOL8        0.0340
   4900  H10      108.7850   81.4000  149.7870 H       8  MOL8        0.0540
   4901  H10      107.1840   81.6900  150.6300 H       8  MOL8        0.0540
   4902  H10      110.8430   81.6240  152.4940 H       8  MOL8        0.0280
   4903  H10      110.6810   83.3600  152.2250 H       8  MOL8        0.0280
   4904  H10      110.8000   82.3060  150.8320 H       8  MOL8        0.0280
   4905  H10      106.7470   84.6630  152.7640 H       8  MOL8        0.0735
   4906  H10      105.2660   83.8390  152.5130 H       8  MOL8        0.0735
   4907  H10      106.9820   84.3030  154.9210 H       8  MOL8        0.0765
   4908  H10      104.8710   85.5190  155.8170 H       8  MOL8        0.0266
   4909  H10      104.2360   85.3240  154.1890 H       8  MOL8        0.0266
   4910  H10      105.7730   86.1430  154.4570 H       8  MOL8        0.0266
   4911  H10      101.5310   79.2360  158.1730 H       8  MOL8        0.0421
   4912  H10      100.7620   79.9350  156.3390 H       8  MOL8        0.0284
   4913  H10      101.1380   78.2640  156.5080 H       8  MOL8        0.0284
   4914  H10       99.7040   77.5020  155.2150 H       8  MOL8        0.0385
   4915  H10      100.0540   78.7850  154.4960 H       8  MOL8        0.0385
   4916  H10      101.1550   80.6650  159.6320 H       8  MOL8        0.0276
   4917  H10       99.8520   81.3650  158.9180 H       8  MOL8        0.0276
   4918  H10      101.3030   82.6090  158.0340 H       8  MOL8        0.0266
   4919  H10      101.7200   81.3910  156.8820 H       8  MOL8        0.0266
   4920  H10      103.7120   81.7510  159.0350 H       8  MOL8        0.0270
   4921  H10      103.2210   83.1400  158.2220 H       8  MOL8        0.0270
   4922  H10      105.0470   81.0070  157.0720 H       8  MOL8        0.0377
   4923  H10      105.2530   82.5180  157.5270 H       8  MOL8        0.0377
   4924  H10       93.0890  105.1860  161.2130 H       8  MOL8        0.0263
   4925  H10       92.1590  105.8870  159.9560 H       8  MOL8        0.0263
   4926  H10       94.0280  103.5780  159.8930 H       8  MOL8        0.0265
   4927  H10       93.3530  104.1830  158.4060 H       8  MOL8        0.0265
   4928  H10       91.1330  103.2400  159.1070 H       8  MOL8        0.0265
   4929  H10       91.8470  102.5900  160.5610 H       8  MOL8        0.0265
   4930  H10       93.2380  101.1700  159.4800 H       8  MOL8        0.0265
   4931  H10       93.4000  102.1680  158.0540 H       8  MOL8        0.0265
   4932  H10       91.0460  101.0580  157.4040 H       8  MOL8        0.0265
   4933  H10       91.5600   99.8720  158.5380 H       8  MOL8        0.0265
   4934  H10       93.8510  100.7070  156.7710 H       8  MOL8        0.0265
   4935  H10       92.4550  100.3610  155.8030 H       8  MOL8        0.0265
   4936  H10       92.5950   98.1770  156.0790 H       8  MOL8        0.0265
   4937  H10       92.6200   98.3280  157.8320 H       8  MOL8        0.0265
   4938  H10       95.0720   98.4040  157.8520 H       8  MOL8        0.0265
   4939  H10       95.1400   98.3250  156.1100 H       8  MOL8        0.0265
   4940  H10       94.2220   96.1720  156.1060 H       8  MOL8        0.0266
   4941  H10       93.2670   96.4660  157.5110 H       8  MOL8        0.0266
   4942  H10       94.8490   95.7020  158.9890 H       8  MOL8        0.0298
   4943  H10       96.1160   95.5050  157.7670 H       8  MOL8        0.0298
   4944  H10       94.4210   94.2540  156.4620 H       8  MOL8        0.0697
   4945  H10       93.5650   93.9540  157.9770 H       8  MOL8        0.0697
   4946  H10       94.4840  106.1260  158.6460 H       8  MOL8        0.0230
   4947  H10       95.2400  105.6690  160.1700 H       8  MOL8        0.0230
   4948  H10       94.3560  107.1630  160.0370 H       8  MOL8        0.0230
   4949  H10       95.7130   90.7950  158.8660 H       8  MOL8        0.0411
   4950  H10       97.7340   91.7090  160.7220 H       8  MOL8        0.0238
   4951  H10       98.3570   90.5560  159.5830 H       8  MOL8        0.0238
   4952  H10       96.9900   90.1280  160.4850 H       8  MOL8        0.0238
   4953  H10       97.5620   92.6230  157.3210 H       8  MOL8        0.0273
   4954  H10       96.3740   91.5460  156.7300 H       8  MOL8        0.0273
   4955  H10       96.8020   90.7220  155.1800 H       8  MOL8        0.0240
   4956  H10       97.4690   89.2350  154.5780 H       8  MOL8        0.0240
   4957  H10       97.9940   90.7530  153.8950 H       8  MOL8        0.0240
   4958  H10      101.9560   55.4740  158.9230 H       8  MOL8        0.2951
   4959  H10      102.9800   55.7430  157.4370 H       8  MOL8        0.0377
   4960  H10      101.7390   56.6610  156.5660 H       8  MOL8        0.0377
   4961  H10      102.2170   54.2860  154.9610 H       8  MOL8        0.0270
   4962  H10      103.7860   54.8080  155.5530 H       8  MOL8        0.0270
   4963  H10      103.0820   57.1800  154.9570 H       8  MOL8        0.0266
   4964  H10      101.7430   56.5570  154.3020 H       8  MOL8        0.0266
   4965  H10      103.6370   55.6330  152.4720 H       8  MOL8        0.0276
   4966  H10      104.6550   56.3550  153.7130 H       8  MOL8        0.0276
   4967  H10      103.0010   59.9940  151.6770 H       8  MOL8        0.0385
   4968  H10      102.1260   60.5130  153.0860 H       8  MOL8        0.0385
   4969  H10      102.3500   58.6140  153.9300 H       8  MOL8        0.0284
   4970  H10      104.0290   58.9700  154.2900 H       8  MOL8        0.0284
   4971  H10       95.9610   67.3790  156.8540 H       8  MOL8        0.0276
   4972  H10       94.9550   66.8770  155.5120 H       8  MOL8        0.0276
   4973  H10       95.0190   68.7060  158.3770 H       8  MOL8        0.0240
   4974  H10       93.2710   68.7140  158.2970 H       8  MOL8        0.0240
   4975  H10       94.1530   70.1980  157.9440 H       8  MOL8        0.0240
   4976  H10       95.0160   69.8570  153.3920 H       8  MOL8        0.0735
   4977  H10       95.3620   68.1700  153.4460 H       8  MOL8        0.0735
   4978  H10       96.0090   69.1060  151.4390 H       8  MOL8        0.0765
   4979  H10       98.0800   69.6980  150.7660 H       8  MOL8        0.0266
   4980  H10       98.7870   69.7190  152.3750 H       8  MOL8        0.0266
   4981  H10       97.7830   71.0540  151.8310 H       8  MOL8        0.0266
   4982  H10      102.6920   68.0050  154.2970 H       8  MOL8        0.0421
   4983  H10      103.2740   69.8630  151.9020 H       8  MOL8        0.0284
   4984  H10      104.3890   69.3430  153.3320 H       8  MOL8        0.0284
   4985  H10      103.8760   71.6580  152.0340 H       8  MOL8        0.0385
   4986  H10      105.1850   70.8070  152.4480 H       8  MOL8        0.0385
   4987  H10      101.2580   67.8190  151.7890 H       8  MOL8        0.0276
   4988  H10      100.9000   69.1720  152.7330 H       8  MOL8        0.0276
   4989  H10       99.8320   67.5880  154.5120 H       8  MOL8        0.0266
   4990  H10      100.9590   66.4610  154.1680 H       8  MOL8        0.0266
   4991  H10       98.4610   66.1340  153.8290 H       8  MOL8        0.0270
   4992  H10       99.6670   65.1740  153.1650 H       8  MOL8        0.0270
   4993  H10       98.2130   65.1500  151.4730 H       8  MOL8        0.0377
   4994  H10       99.3790   66.3100  150.8890 H       8  MOL8        0.0377
   4995  H10      103.1170   57.8020  151.6630 H       8  MOL8        0.0421
   4996  H10      111.8560   79.5200  154.2250 H       8  MOL8        0.0540
   4997  H10      113.2270   80.3330  155.0170 H       8  MOL8        0.0540
   4998  H10      114.1160   78.6150  157.3890 H       8  MOL8        0.0280
   4999  H10      114.7400   78.0140  155.8190 H       8  MOL8        0.0280
   5000  H11      113.8980   76.9190  156.8690 H       8  MOL8        0.0280
   5001  H11      109.2880   76.9410  153.8530 H       8  MOL8        0.0735
   5002  H11      110.2950   75.7220  154.6100 H       8  MOL8        0.0735
   5003  H11      107.9340   77.1300  155.6730 H       8  MOL8        0.0765
   5004  H11      107.2130   76.2120  153.9740 H       8  MOL8        0.0266
   5005  H11      106.8240   74.8320  154.9750 H       8  MOL8        0.0266
   5006  H11      108.1660   74.7950  153.9210 H       8  MOL8        0.0266
   5007  H11      104.4830   72.9800  157.7830 H       8  MOL8        0.0421
   5008  H11      104.8130   70.1870  158.2240 H       8  MOL8        0.0284
   5009  H11      103.1470   70.5840  158.0070 H       8  MOL8        0.0284
   5010  H11      104.5570   72.1640  160.0240 H       8  MOL8        0.0385
   5011  H11      104.1340   70.4170  160.3310 H       8  MOL8        0.0385
   5012  H11      106.4350   72.5210  156.2810 H       8  MOL8        0.0276
   5013  H11      106.6560   71.1160  157.1200 H       8  MOL8        0.0276
   5014  H11      106.5030   71.7350  159.1820 H       8  MOL8        0.0266
   5015  H11      105.8630   73.2450  159.0430 H       8  MOL8        0.0266
   5016  H11      108.7980   72.4570  159.0050 H       8  MOL8        0.0270
   5017  H11      108.0030   73.1250  160.3320 H       8  MOL8        0.0270
   5018  H11      109.8660   74.2960  159.7140 H       8  MOL8        0.0377
   5019  H11      108.5250   75.3490  159.9500 H       8  MOL8        0.0377
   5020  H11      101.5050   55.7850  150.7080 H       8  MOL8        0.0540
   5021  H11      101.2400   57.6280  150.9290 H       8  MOL8        0.0540
   5022  H11      100.4100   55.0790  154.1940 H       8  MOL8        0.0280
   5023  H11      101.5410   54.6110  152.9380 H       8  MOL8        0.0280
   5024  H11       99.8080   54.4740  152.6370 H       8  MOL8        0.0280
   5025  H11       98.7260   60.2880  152.1740 H       8  MOL8        0.0735
   5026  H11       98.4870   59.3220  153.4810 H       8  MOL8        0.0735
   5027  H11      100.5560   61.4590  153.1910 H       8  MOL8        0.0765
   5028  H11       98.8370   62.6600  153.0810 H       8  MOL8        0.0266
   5029  H11       98.9720   62.6730  154.7750 H       8  MOL8        0.0266
   5030  H11       97.7530   61.6080  153.9530 H       8  MOL8        0.0266
   5031  H11      107.6950   61.8570  154.6050 H       8  MOL8        0.0421
   5032  H11      107.7170   63.4090  153.1160 H       8  MOL8        0.0284
   5033  H11      106.2640   62.9100  152.3480 H       8  MOL8        0.0284
   5034  H11      106.6960   65.1760  152.9460 H       8  MOL8        0.0385
   5035  H11      106.1160   64.8520  154.6210 H       8  MOL8        0.0385
   5036  H11      104.9200   62.5630  155.1910 H       8  MOL8        0.0276
   5037  H11      106.1120   62.9220  156.3270 H       8  MOL8        0.0276
   5038  H11      105.7920   60.8490  157.3190 H       8  MOL8        0.0266
   5039  H11      105.6790   60.0040  155.7980 H       8  MOL8        0.0266
   5040  H11      103.6600   61.8660  156.9650 H       8  MOL8        0.0270
   5041  H11      103.8640   60.4460  157.8510 H       8  MOL8        0.0270
   5042  H11      101.9500   61.0960  157.4950 H       8  MOL8        0.0377
   5043  H11      101.8320   59.5620  156.8550 H       8  MOL8        0.0377
   5044  H11       83.0890   56.8110  158.0870 H       8  MOL8        0.0263
   5045  H11       82.9220   58.2500  157.0880 H       8  MOL8        0.0263
   5046  H11       83.8910   58.3610  159.9570 H       8  MOL8        0.0265
   5047  H11       83.7200   59.7020  158.8190 H       8  MOL8        0.0265
   5048  H11       85.1910   57.4600  157.6390 H       8  MOL8        0.0265
   5049  H11       86.0220   57.8910  159.0060 H       8  MOL8        0.0265
   5050  H11       85.8630   60.3390  158.2600 H       8  MOL8        0.0265
   5051  H11       84.9920   59.8890  156.8900 H       8  MOL8        0.0265
   5052  H11       86.9900   59.4400  155.6330 H       8  MOL8        0.0265
   5053  H11       87.6730   58.5380  156.8400 H       8  MOL8        0.0265
   5054  H11       87.6860   60.8820  158.0560 H       8  MOL8        0.0265
   5055  H11       87.0460   61.5230  156.5810 H       8  MOL8        0.0265
   5056  H11       89.7170   60.9640  157.6730 H       8  MOL8        0.0265
   5057  H11       88.9560   62.3980  157.1450 H       8  MOL8        0.0265
   5058  H11       90.6070   62.3250  155.7440 H       8  MOL8        0.0265
   5059  H11       89.9170   61.1310  154.7710 H       8  MOL8        0.0265
   5060  H11       92.2100   60.8660  155.4910 H       8  MOL8        0.0266
   5061  H11       91.2720   59.6410  156.3840 H       8  MOL8        0.0266
   5062  H11       93.1060   61.1560  157.6450 H       8  MOL8        0.0298
   5063  H11       91.6750   60.5030  158.3650 H       8  MOL8        0.0298
   5064  H11       92.0090   62.7360  159.0130 H       8  MOL8        0.0697
   5065  H11       90.5730   62.8660  158.1190 H       8  MOL8        0.0697
   5066  H11       80.8860   57.4300  157.9970 H       8  MOL8        0.0230
   5067  H11       81.2280   59.1680  158.1870 H       8  MOL8        0.0230
   5068  H11       81.3950   58.0740  159.5990 H       8  MOL8        0.0230
   5069  H11       92.4320   66.3780  156.2000 H       8  MOL8        0.0411
   5070  H11       94.9530   64.8390  155.8770 H       8  MOL8        0.0238
   5071  H11       93.8130   65.3090  154.6760 H       8  MOL8        0.0238
   5072  H11       93.5130   63.8460  155.5030 H       8  MOL8        0.0238
   5073  H11       94.8760   65.6590  157.8670 H       8  MOL8        0.0273
   5074  H11       93.7610   66.9190  158.3270 H       8  MOL8        0.0273
   5075  H11       92.4830   68.2060  155.5860 H       8  MOL8        0.0240
   5076  H11       93.4740   69.0780  154.3870 H       8  MOL8        0.0240
   5077  H11       92.6980   69.9290  155.6710 H       8  MOL8        0.0240
   5078  H11      125.3070   56.2350  152.0120 H       8  MOL8        0.2951
   5079  H11      124.5310   56.0340  149.9380 H       8  MOL8        0.0377
   5080  H11      124.9230   54.4660  150.6280 H       8  MOL8        0.0377
   5081  H11      126.2660   53.8070  148.7490 H       8  MOL8        0.0270
   5082  H11      126.0490   55.1600  147.8350 H       8  MOL8        0.0270
   5083  H11      123.7900   54.7320  147.5560 H       8  MOL8        0.0266
   5084  H11      124.3370   53.0730  148.2050 H       8  MOL8        0.0266
   5085  H11      123.8180   52.2430  146.5050 H       8  MOL8        0.0276
   5086  H11      123.5010   53.7100  145.5960 H       8  MOL8        0.0276
   5087  H11      118.6530   52.0560  146.0340 H       8  MOL8        0.0385
   5088  H11      119.4250   51.0070  147.2370 H       8  MOL8        0.0385
   5089  H11      120.7020   52.9340  148.0260 H       8  MOL8        0.0284
   5090  H11      120.1900   53.9610  146.7390 H       8  MOL8        0.0284
   5091  H11      114.9820   65.4540  152.0450 H       8  MOL8        0.0276
   5092  H11      115.1630   66.1660  150.5140 H       8  MOL8        0.0276
   5093  H11      118.6270   66.8330  152.1250 H       8  MOL8        0.0240
   5094  H11      117.9210   67.4450  150.6550 H       8  MOL8        0.0240
   5095  H11      118.9230   65.9300  150.6810 H       8  MOL8        0.0240
   5096  H11      118.3470   62.4960  152.9870 H       8  MOL8        0.0735
   5097  H11      116.7780   61.8160  153.4240 H       8  MOL8        0.0735
   5098  H11      117.6380   61.7450  150.5890 H       8  MOL8        0.0765
   5099  H11      118.1050   59.2640  151.6830 H       8  MOL8        0.0266
   5100  H12      118.0160   60.1740  153.1870 H       8  MOL8        0.0266
   5101  H12      119.2840   60.5420  152.0270 H       8  MOL8        0.0266
   5102  H12      112.5840   58.1000  153.3270 H       8  MOL8        0.0421
   5103  H12      113.0030   56.9380  155.8400 H       8  MOL8        0.0284
   5104  H12      113.8230   55.7650  154.8120 H       8  MOL8        0.0284
   5105  H12      111.2640   56.7450  153.6950 H       8  MOL8        0.0385
   5106  H12      111.0590   56.1950  155.3600 H       8  MOL8        0.0385
   5107  H12      114.4730   58.4290  155.5430 H       8  MOL8        0.0276
   5108  H12      113.0280   59.3240  155.1070 H       8  MOL8        0.0276
   5109  H12      115.7370   59.4230  153.6120 H       8  MOL8        0.0266
   5110  H12      115.2040   60.5380  154.7870 H       8  MOL8        0.0266
   5111  H12      114.4160   61.6380  152.7710 H       8  MOL8        0.0270
   5112  H12      113.0050   60.7150  153.2480 H       8  MOL8        0.0270
   5113  H12      113.6590   60.6180  150.8020 H       8  MOL8        0.0377
   5114  H12      113.4780   59.0090  151.4980 H       8  MOL8        0.0377
   5115  H12      121.9660   51.6200  147.1180 H       8  MOL8        0.0412
   5116  H12      120.9810   49.3770  144.5960 H       8  MOL8        0.0341
   5117  H12      119.6990   50.3380  145.3590 H       8  MOL8        0.0341
   5118  H12      121.0640   49.7070  146.3510 H       8  MOL8        0.0341
   5119  H12      108.9090   62.7340  156.6250 H       8  MOL8        0.0540
   5120  H12      107.6590   63.0050  157.9480 H       8  MOL8        0.0540
   5121  H12      107.2650   65.6050  158.4580 H       8  MOL8        0.0280
   5122  H12      106.1600   65.4570  157.0760 H       8  MOL8        0.0280
   5123  H12      107.4070   66.7200  157.0890 H       8  MOL8        0.0280
   5124  H12      109.4390   65.2780  153.1590 H       8  MOL8        0.0735
   5125  H12      110.9980   65.5360  153.8820 H       8  MOL8        0.0735
   5126  H12      110.1740   64.1670  151.8100 H       8  MOL8        0.0765
   5127  H12      112.2190   63.0060  151.1230 H       8  MOL8        0.0266
   5128  H12      112.6850   62.8340  152.7310 H       8  MOL8        0.0266
   5129  H12      112.6560   64.4690  151.9180 H       8  MOL8        0.0266
   5130  H12      109.6800   55.0290  151.9970 H       8  MOL8        0.0421
   5131  H12      107.3720   53.8950  152.5380 H       8  MOL8        0.0284
   5132  H12      107.9550   54.4610  151.0280 H       8  MOL8        0.0284
   5133  H12      105.7250   55.5410  152.5350 H       8  MOL8        0.0385
   5134  H12      105.7200   54.5130  151.1650 H       8  MOL8        0.0385
   5135  H12      108.0990   57.3810  151.9770 H       8  MOL8        0.0276
   5136  H12      109.8040   57.2720  151.8650 H       8  MOL8        0.0276
   5137  H12      109.4970   57.3340  154.6350 H       8  MOL8        0.0266
   5138  H12      108.1810   58.2970  153.9750 H       8  MOL8        0.0266
   5139  H12      110.8980   58.6790  152.7540 H       8  MOL8        0.0270
   5140  H12      110.6410   59.3820  154.3390 H       8  MOL8        0.0270
   5141  H12      108.6030   60.6210  153.3190 H       8  MOL8        0.0377
   5142  H12      109.0020   59.7560  151.8260 H       8  MOL8        0.0377
   5143  H12      127.0990   58.2500  148.3380 H       8  MOL8        0.0540
   5144  H12      125.9030   57.9050  149.6690 H       8  MOL8        0.0540
   5145  H12      127.7560   61.6150  149.6440 H       8  MOL8        0.0280
   5146  H12      126.8420   61.4980  148.1210 H       8  MOL8        0.0280
   5147  H12      128.2200   60.4760  148.3690 H       8  MOL8        0.0280
   5148  H12      123.3430   60.6360  151.4390 H       8  MOL8        0.0735
   5149  H12      122.8000   59.5080  150.1640 H       8  MOL8        0.0735
   5150  H12      123.6360   58.3740  152.6110 H       8  MOL8        0.0765
   5151  H12      121.6190   58.6990  154.0470 H       8  MOL8        0.0266
   5152  H12      120.8500   59.7620  152.9030 H       8  MOL8        0.0266
   5153  H12      122.2860   60.3210  153.6870 H       8  MOL8        0.0266
   5154  H12      116.5410   54.3070  149.2670 H       8  MOL8        0.0421
   5155  H12      114.6810   53.4000  151.3780 H       8  MOL8        0.0284
   5156  H12      114.0830   53.6220  149.7430 H       8  MOL8        0.0284
   5157  H12      115.1960   56.0370  150.0500 H       8  MOL8        0.0385
   5158  H12      115.7230   55.4260  151.5810 H       8  MOL8        0.0385
   5159  H12      117.8460   52.8930  151.2850 H       8  MOL8        0.0276
   5160  H12      116.8410   54.0100  152.0670 H       8  MOL8        0.0276
   5161  H12      117.6160   55.6940  150.1020 H       8  MOL8        0.0266
   5162  H12      118.9760   54.5780  150.0460 H       8  MOL8        0.0266
   5163  H12      118.8700   55.2470  152.6570 H       8  MOL8        0.0270
   5164  H12      118.1990   56.7280  151.9230 H       8  MOL8        0.0270
   5165  H12      120.7180   55.6510  150.7010 H       8  MOL8        0.0377
   5166  H12      120.9210   55.8230  152.4150 H       8  MOL8        0.0377
   5167  H12      118.9430   80.1870  149.8910 H       8  MOL8        0.0263
   5168  H12      118.5860   79.5260  151.4750 H       8  MOL8        0.0263
   5169  H12      116.6810   79.9690  149.2850 H       8  MOL8        0.0265
   5170  H12      116.0950   80.1990  150.9400 H       8  MOL8        0.0265
   5171  H12      116.9040   78.0020  151.6250 H       8  MOL8        0.0265
   5172  H12      117.9340   77.8720  150.2300 H       8  MOL8        0.0265
   5173  H12      116.2370   77.7350  148.7040 H       8  MOL8        0.0265
   5174  H12      115.0310   78.1280  149.9990 H       8  MOL8        0.0265
   5175  H12      115.4110   76.0110  151.0560 H       8  MOL8        0.0265
   5176  H12      116.4240   75.4940  149.7530 H       8  MOL8        0.0265
   5177  H12      114.5720   75.8430  148.0860 H       8  MOL8        0.0265
   5178  H12      113.7370   76.8840  149.1650 H       8  MOL8        0.0265
   5179  H12      113.0810   74.3780  148.6160 H       8  MOL8        0.0265
   5180  H12      112.4460   75.3710  149.8950 H       8  MOL8        0.0265
   5181  H12      114.6480   74.0090  151.1650 H       8  MOL8        0.0265
   5182  H12      113.9310   72.8740  150.0520 H       8  MOL8        0.0265
   5183  H12      111.6840   73.6950  151.0250 H       8  MOL8        0.0266
   5184  H12      112.8360   73.7710  152.4540 H       8  MOL8        0.0266
   5185  H12      113.5760   71.5810  151.3990 H       8  MOL8        0.0298
   5186  H12      111.9640   71.5030  150.6520 H       8  MOL8        0.0298
   5187  H12      111.2410   70.6070  152.5990 H       8  MOL8        0.0697
   5188  H12      111.9980   71.7940  153.6730 H       8  MOL8        0.0697
   5189  H12      118.8610   82.3250  150.6460 H       8  MOL8        0.0230
   5190  H12      119.6940   81.3440  151.8000 H       8  MOL8        0.0230
   5191  H12      118.0670   81.9600  152.1850 H       8  MOL8        0.0230
   5192  H12      115.1180   68.5070  153.9070 H       8  MOL8        0.0411
   5193  H12      116.7740   70.0040  152.7600 H       8  MOL8        0.0238
   5194  H12      115.5730   70.7870  153.7200 H       8  MOL8        0.0238
   5195  H12      115.3430   70.8740  152.0800 H       8  MOL8        0.0238
   5196  H12      115.4570   68.1510  150.8720 H       8  MOL8        0.0273
   5197  H12      114.0220   67.4550  151.6330 H       8  MOL8        0.0273
   5198  H12      116.0610   64.1190  150.3570 H       8  MOL8        0.0240
   5199  H12      117.7790   64.2450  149.9700 H       8  MOL8        0.0240
   5200  H13      116.6490   65.4920  149.3640 H       8  MOL8        0.0240
   5201  O65      146.2590   93.4460  124.7650 O.2     9  MOL9       -0.2510
   5202  O65      145.1990   95.2120  125.4760 O.3     9  MOL9       -0.4806
   5203  C65      145.6050   93.9270  125.6520 C.2     9  MOL9        0.3047
   5204  C65      144.9890   93.4360  127.0420 C.3     9  MOL9        0.0448
   5205  C65      145.4320   92.4860  128.2490 C.3     9  MOL9       -0.0430
   5206  C65      145.3680   92.6880  129.8790 C.3     9  MOL9       -0.0515
   5207  C65      146.2270   91.5510  130.7130 C.3     9  MOL9       -0.0403
   5208  S65      149.9930   94.4370  133.4860 S.3     9  MOL9       -0.0928
   5209  C65      148.8560   92.7290  133.6140 C.3     9  MOL9        0.0050
   5210  C66      147.3910   92.0590  133.2110 C.3     9  MOL9       -0.0305
   5211  C66      144.2180  105.8300  128.7300 C.2     9  MOL9        0.3129
   5212  C66      144.4630  107.2270  129.4770 C.3     9  MOL9        0.0622
   5213  C66      145.8580  107.6660  129.9580 C.3     9  MOL9       -0.0370
   5214  C66      144.1980  108.3960  128.5700 C.3     9  MOL9       -0.0497
   5215  O66      144.7510  105.4470  127.7270 O.2     9  MOL9       -0.2502
   5216  O66      143.2700  105.0940  129.4180 O.3     9  MOL9       -0.4605
   5217  C66      142.6680  103.7600  129.1530 C.3     9  MOL9        0.1290
   5218  C66      142.4560  102.6760  130.2650 C.3     9  MOL9        0.1341
   5219  C66      143.8060  102.1120  130.4700 C.3     9  MOL9       -0.0244
   5220  C67      142.8590   97.9850  137.0140 C.3     9  MOL9        0.0162
   5221  C67      144.3920   97.6290  137.4670 C.3     9  MOL9       -0.0305
   5222  C67      145.7400   97.9890  138.2820 C.3     9  MOL9        0.0050
   5223  S67      145.9010   98.4700  140.0960 S.3     9  MOL9       -0.0928
   5224  C67      141.5160   98.9120  136.5720 C.3     9  MOL9       -0.0403
   5225  C67      140.5250  100.1190  136.0790 C.3     9  MOL9       -0.0515
   5226  C67      140.1600  101.3810  135.1280 C.3     9  MOL9       -0.0429
   5227  C67      140.2370  102.0390  133.6560 C.3     9  MOL9        0.0450
   5228  C67      140.6590  101.9820  132.1100 C.2     9  MOL9        0.3074
   5229  O67      141.8220  102.5460  131.6430 O.3     9  MOL9       -0.4582
   5230  O68      139.8660  101.5170  131.3600 O.2     9  MOL9       -0.2508
   5231  C68      147.2700   91.0960  132.0380 C.3     9  MOL9        0.0162
   5232  C68      147.1620  110.0720  135.5690 C.2     9  MOL9        0.3344
   5233  C68      146.8900  111.1110  136.6600 C.2     9  MOL9        0.0264
   5234  C68      147.1000  110.8670  137.9620 C.2     9  MOL9       -0.0890
   5235  C68      146.2920  112.4670  136.3980 C.3     9  MOL9       -0.0335
   5236  O68      146.9830  110.3780  134.4180 O.2     9  MOL9       -0.2453
   5237  O68      147.5910  108.8120  135.9020 O.3     9  MOL9       -0.4577
   5238  C68      147.6650  107.4270  135.3490 C.3     9  MOL9        0.1293
   5239  C68      146.8760  106.0770  135.7320 C.3     9  MOL9        0.1341
   5240  C69      147.8200  105.0960  134.9750 C.3     9  MOL9       -0.0244
   5241  C69      147.7300   99.9510  141.9730 C.3     9  MOL9        0.0162
   5242  C69      147.3930   99.5050  143.3940 C.3     9  MOL9       -0.0313
   5243  C69      147.2810  100.7860  144.1810 C.3     9  MOL9       -0.0056
   5244  S69      145.7330  101.0410  145.0170 S.3     9  MOL9       -0.1641
   5245  C69      148.6820  101.3330  141.8940 C.3     9  MOL9       -0.0403
   5246  C69      148.5210  102.9130  141.3000 C.3     9  MOL9       -0.0515
   5247  C69      147.8780  104.3340  140.6260 C.3     9  MOL9       -0.0429
   5248  C69      146.8300  105.4350  139.8210 C.3     9  MOL9        0.0450
   5249  C69      145.7530  105.7000  138.5220 C.2     9  MOL9        0.3074
   5250  O70      146.0790  105.8240  137.0830 O.3     9  MOL9       -0.4582
   5251  O70      144.6020  105.8470  138.7600 O.2     9  MOL9       -0.2508
   5252  C70      145.7020  102.8540  145.3120 C.3     9  MOL9       -0.0181
   5253  S70      147.8770   98.5150  140.7990 S.3     9  MOL9       -0.0897
   5254  C70      142.4350   96.4830  123.3800 C.2     9  MOL9        0.3344
   5255  C70      141.3320   95.7590  122.7770 C.2     9  MOL9        0.0264
   5256  C70      140.2570   95.4830  123.5420 C.2     9  MOL9       -0.0890
   5257  C70      141.4270   95.4670  121.3230 C.3     9  MOL9       -0.0335
   5258  O70      143.4790   96.7130  122.8140 O.2     9  MOL9       -0.2453
   5259  O70      142.2550   96.9700  124.6210 O.3     9  MOL9       -0.4577
   5260  C71      142.4870   98.3470  124.8100 C.3     9  MOL9        0.1293
   5261  C71      143.9160   98.7450  124.9070 C.3     9  MOL9        0.1341
   5262  C71      144.0030  100.2240  125.2560 C.3     9  MOL9       -0.0244
   5263  S71      149.4570   96.2660  132.5570 S.3     9  MOL9       -0.0897
   5264  C71      147.7390   96.5080  131.6740 C.3     9  MOL9        0.0162
   5265  C71      146.1850   96.0870  131.9310 C.3     9  MOL9       -0.0305
   5266  C71      144.9150   95.8720  132.9210 C.3     9  MOL9        0.0050
   5267  S71      143.7770   96.1010  134.3730 S.3     9  MOL9       -0.0928
   5268  C71      148.0660   97.7920  130.9240 C.3     9  MOL9       -0.0403
   5269  C71      147.2700   98.1840  129.6620 C.3     9  MOL9       -0.0515
   5270  C72      147.4720   98.0620  128.1250 C.3     9  MOL9       -0.0429
   5271  C72      146.5220   97.4560  127.0510 C.3     9  MOL9        0.0450
   5272  C72      145.0670   97.8460  126.8640 C.2     9  MOL9        0.3074
   5273  O72      144.8610   97.8660  125.5340 O.3     9  MOL9       -0.4582
   5274  O72      144.2670   98.1620  127.6810 O.2     9  MOL9       -0.2508
   5275  S72      142.6400   96.4320  135.9770 S.3     9  MOL9       -0.0897
   5276  C72      147.5870  123.5090  129.7950 C.3     9  MOL9       -0.0559
   5277  C72      147.0080  122.1780  130.2050 C.3     9  MOL9       -0.0533
   5278  C72      147.1200  121.5130  131.5800 C.3     9  MOL9       -0.0531
   5279  C72      146.4320  120.1520  131.4100 C.3     9  MOL9       -0.0531
   5280  C73      145.6450  119.3590  132.4530 C.3     9  MOL9       -0.0531
   5281  C73      144.6040  118.4600  131.7270 C.3     9  MOL9       -0.0531
   5282  C73      144.8380  116.9880  132.0270 C.3     9  MOL9       -0.0531
   5283  C73      144.9920  115.9580  130.9110 C.3     9  MOL9       -0.0530
   5284  C73      145.2150  114.6530  131.6550 C.3     9  MOL9       -0.0500
   5285  C73      146.1270  113.5160  131.2780 C.3     9  MOL9       -0.0185
   5286  C73      145.8160  112.4010  132.2150 C.3     9  MOL9        0.0925
   5287  C73      147.1570  123.7740  128.3440 C.3     9  MOL9       -0.0653
   5288  C73      147.3950  109.3060  131.2640 C.3     9  MOL9        0.0537
   5289  C73      147.4240  110.7500  131.6840 C.2     9  MOL9        0.3099
   5290  O74      146.1460  111.1670  131.6170 O.3     9  MOL9       -0.4644
   5291  O74      148.2890  111.4800  132.1030 O.2     9  MOL9       -0.2505
   5292  C74      148.5600  108.5590  130.5900 C.3     9  MOL9       -0.0523
   5293  C74      145.9990  109.0480  130.6090 C.3     9  MOL9       -0.0394
   5294  C74      143.4610  107.3880  130.5720 C.3     9  MOL9       -0.0497
   5295  O74      148.0360   73.1720  140.5300 O.2     9  MOL9       -0.2510
   5296  O74      149.9330   73.5290  139.3580 O.3     9  MOL9       -0.4806
   5297  C74      148.5890   73.3630  139.4920 C.2     9  MOL9        0.3047
   5298  C74      147.9340   73.5850  138.1510 C.3     9  MOL9        0.0448
   5299  C74      146.6610   72.7950  137.7780 C.3     9  MOL9       -0.0430
   5300  C75      145.6230   73.8150  137.3690 C.3     9  MOL9       -0.0515
   5301  C75      144.4460   73.5050  136.4610 C.3     9  MOL9       -0.0403
   5302  S75      144.1880   78.0750  134.3170 S.3     9  MOL9       -0.0928
   5303  C75      143.6980   77.1760  135.7650 C.3     9  MOL9        0.0050
   5304  C75      144.5130   75.9500  135.9870 C.3     9  MOL9       -0.0305
   5305  C75      146.0230   88.8370  139.5710 C.2     9  MOL9        0.3129
   5306  C75      146.4410   88.4480  141.0010 C.3     9  MOL9        0.0622
   5307  C75      146.6890   86.9550  140.9990 C.3     9  MOL9       -0.0370
   5308  C75      147.8630   88.9990  141.1060 C.3     9  MOL9       -0.0497
   5309  O75      146.6910   89.6310  138.9730 O.2     9  MOL9       -0.2502
   5310  O76      144.9620   88.1360  138.9880 O.3     9  MOL9       -0.4605
   5311  C76      143.6250   88.1320  139.5220 C.3     9  MOL9        0.1290
   5312  C76      142.4110   87.7010  138.6910 C.3     9  MOL9        0.1341
   5313  C76      141.9180   88.0900  137.3030 C.3     9  MOL9       -0.0244
   5314  C76      143.6150   84.8920  133.3950 C.3     9  MOL9        0.0162
   5315  C76      143.2190   85.9970  132.1820 C.3     9  MOL9       -0.0305
   5316  C76      143.1170   87.0960  130.9430 C.3     9  MOL9        0.0050
   5317  S76      144.1300   88.1940  129.8520 S.3     9  MOL9       -0.0928
   5318  C76      143.1370   85.3010  134.7820 C.3     9  MOL9       -0.0403
   5319  C76      144.0020   84.7500  135.9860 C.3     9  MOL9       -0.0515
   5320  C77      143.4670   84.1570  137.3310 C.3     9  MOL9       -0.0429
   5321  C77      142.0410   84.2380  137.9150 C.3     9  MOL9        0.0450
   5322  C77      141.5570   85.4720  138.4980 C.2     9  MOL9        0.3074
   5323  O77      142.6020   86.3070  138.4710 O.3     9  MOL9       -0.4582
   5324  O77      140.4490   85.7270  138.9100 O.2     9  MOL9       -0.2508
   5325  S77      143.1240   74.4230  134.2050 S.3     9  MOL9       -0.0897
   5326  C77      143.6630   74.7060  135.9310 C.3     9  MOL9        0.0162
   5327  C77      145.5480   90.4660  121.7300 C.2     9  MOL9        0.3344
   5328  C77      145.6000   91.1250  120.4550 C.2     9  MOL9        0.0264
   5329  C77      144.8260   92.1980  120.2330 C.2     9  MOL9       -0.0890
   5330  C78      146.5050   90.4750  119.4900 C.3     9  MOL9       -0.0335
   5331  O78      145.8810   89.3100  121.8770 O.2     9  MOL9       -0.2453
   5332  O78      145.1320   91.2190  122.7640 O.3     9  MOL9       -0.4577
   5333  C78      144.7740   90.5240  123.9240 C.3     9  MOL9        0.1293
   5334  C78      145.6080   90.6550  125.1260 C.3     9  MOL9        0.1341
   5335  C78      144.6170   90.1190  126.2600 C.3     9  MOL9       -0.0244
   5336  C78      147.4280   88.1580  130.2210 C.3     9  MOL9        0.0162
   5337  C78      148.4620   87.4270  131.1200 C.3     9  MOL9       -0.0305
   5338  C78      149.8880   87.8870  131.1540 C.3     9  MOL9        0.0050
   5339  S78      150.1100   88.9500  132.5460 S.3     9  MOL9       -0.0928
   5340  C79      147.4280   87.6510  128.8050 C.3     9  MOL9       -0.0403
   5341  C79      148.7970   88.1190  128.1450 C.3     9  MOL9       -0.0515
   5342  C79      149.3910   88.2540  126.6240 C.3     9  MOL9       -0.0429
   5343  C79      149.2820   89.2770  125.3190 C.3     9  MOL9        0.0450
   5344  C79      148.0610   89.8070  124.4020 C.2     9  MOL9        0.3074
   5345  O79      147.1050   90.5160  125.0980 O.3     9  MOL9       -0.4582
   5346  O79      148.0090   89.5060  123.2450 O.2     9  MOL9       -0.2508
   5347  S79      148.9630   90.4000  131.6770 S.3     9  MOL9       -0.0897
   5348  S79      145.7900   88.7990  130.8640 S.3     9  MOL9       -0.0897
   5349  C79      144.1190   75.9110  139.2650 C.2     9  MOL9        0.3344
   5350  C80      143.6110   74.5360  139.3620 C.2     9  MOL9        0.0264
   5351  C80      142.4150   74.4200  138.8270 C.2     9  MOL9       -0.0890
   5352  C80      144.3410   73.3130  139.8550 C.3     9  MOL9       -0.0335
   5353  O80      145.2690   76.1610  139.5150 O.2     9  MOL9       -0.2453
   5354  O80      143.3070   76.9680  138.8990 O.3     9  MOL9       -0.4577
   5355  C80      143.8100   78.1850  139.4360 C.3     9  MOL9        0.1293
   5356  C80      144.5750   79.0530  138.5400 C.3     9  MOL9        0.1341
   5357  C80      144.6420   80.4540  139.1850 C.3     9  MOL9       -0.0244
   5358  S80      144.3860   76.6860  132.8210 S.3     9  MOL9       -0.0897
   5359  C80      145.2660   77.8740  131.7750 C.3     9  MOL9        0.0162
   5360  C81      144.1570   78.8850  131.3680 C.3     9  MOL9       -0.0305
   5361  C81      144.2800   80.3940  131.4990 C.3     9  MOL9        0.0050
   5362  S81      143.5500   80.9940  133.0880 S.3     9  MOL9       -0.0928
   5363  C81      146.4960   78.3590  132.5470 C.3     9  MOL9       -0.0403
   5364  C81      147.2820   77.3790  133.4590 C.3     9  MOL9       -0.0515
   5365  C81      147.7260   77.8700  134.8930 C.3     9  MOL9       -0.0429
   5366  C81      147.4900   78.1160  136.4180 C.3     9  MOL9        0.0450
   5367  C81      146.4440   78.9540  137.1080 C.2     9  MOL9        0.3074
   5368  O81      145.6770   78.2840  137.9900 O.3     9  MOL9       -0.4582
   5369  O81      146.4170   80.1450  137.0580 O.2     9  MOL9       -0.2508
   5370  S82      143.3670   82.9800  133.7340 S.3     9  MOL9       -0.0897
   5371  C82      148.6240   82.3170  155.5230 C.3     9  MOL9       -0.0559
   5372  C82      149.3890   82.7140  154.2910 C.3     9  MOL9       -0.0533
   5373  C82      148.8480   81.9100  153.1160 C.3     9  MOL9       -0.0531
   5374  C82      148.0090   82.8290  152.2280 C.3     9  MOL9       -0.0531
   5375  C82      147.2300   82.2580  151.0140 C.3     9  MOL9       -0.0531
   5376  C82      147.4370   83.3050  149.9630 C.3     9  MOL9       -0.0531
   5377  C82      147.3000   83.3580  148.4620 C.3     9  MOL9       -0.0531
   5378  C82      146.2750   82.8970  147.4710 C.3     9  MOL9       -0.0530
   5379  C82      146.8380   81.8940  146.5020 C.3     9  MOL9       -0.0500
   5380  C83      148.1470   82.3090  145.8250 C.3     9  MOL9       -0.0185
   5381  C83      148.4470   83.7960  145.6980 C.3     9  MOL9        0.0925
   5382  C83      148.9780   83.0780  156.7440 C.3     9  MOL9       -0.0653
   5383  C83      146.9500   86.0360  143.2850 C.3     9  MOL9        0.0537
   5384  C83      147.8800   85.6880  144.3970 C.2     9  MOL9        0.3099
   5385  O83      147.5640   84.4370  144.7920 O.3     9  MOL9       -0.4644
   5386  O83      148.7620   86.3680  144.8760 O.2     9  MOL9       -0.2505
   5387  C83      145.9920   84.9360  142.8250 C.3     9  MOL9       -0.0523
   5388  C83      147.6920   86.4260  142.0300 C.3     9  MOL9       -0.0394
   5389  C83      145.4780   89.0280  142.0330 C.3     9  MOL9       -0.0497
   5390  O84      141.9610   64.7460  114.1410 O.2     9  MOL9       -0.2510
   5391  O84      143.6530   65.6710  115.2970 O.3     9  MOL9       -0.4806
   5392  C84      142.4480   65.0320  115.1860 C.2     9  MOL9        0.3047
   5393  C84      141.8440   64.8100  116.5720 C.3     9  MOL9        0.0448
   5394  C84      140.4990   63.9930  116.5900 C.3     9  MOL9       -0.0430
   5395  C84      139.5100   63.6440  117.8300 C.3     9  MOL9       -0.0516
   5396  C84      138.5530   63.3060  119.1050 C.3     9  MOL9       -0.0411
   5397  S84      140.2290   64.8700  123.9260 S.3     9  MOL9       -0.0928
   5398  C84      138.9720   63.6700  123.3590 C.3     9  MOL9        0.0049
   5399  C84      138.9320   64.0670  121.8630 C.3     9  MOL9       -0.0313
   5400  C85      143.4600   76.4760  120.6840 C.2     9  MOL9        0.3129
   5401  C85      142.3840   77.5270  120.7870 C.3     9  MOL9        0.0622
   5402  C85      142.4160   78.5600  121.9480 C.3     9  MOL9       -0.0370
   5403  C85      142.1140   77.9380  119.3870 C.3     9  MOL9       -0.0497
   5404  O85      144.1340   76.2290  119.7130 O.2     9  MOL9       -0.2502
   5405  O85      143.4320   75.7310  121.8250 O.3     9  MOL9       -0.4605
   5406  C85      143.8210   74.3830  121.6310 C.3     9  MOL9        0.1290
   5407  C85      142.8170   73.3540  121.9660 C.3     9  MOL9        0.1341
   5408  C85      143.4860   72.0870  121.4810 C.3     9  MOL9       -0.0244
   5409  C85      145.2910   71.4680  126.8620 C.3     9  MOL9        0.0162
   5410  C86      146.2820   70.5820  127.6120 C.3     9  MOL9       -0.0305
   5411  C86      145.9300   70.5800  129.0850 C.3     9  MOL9        0.0050
   5412  S86      145.4370   69.0880  129.9140 S.3     9  MOL9       -0.0928
   5413  C86      146.0410   72.4340  126.0080 C.3     9  MOL9       -0.0403
   5414  C86      145.3000   73.0360  124.8260 C.3     9  MOL9       -0.0515
   5415  C86      144.1360   73.9060  125.3060 C.3     9  MOL9       -0.0429
   5416  C86      142.8240   73.1470  125.5150 C.3     9  MOL9        0.0450
   5417  C86      142.5300   72.4430  124.2440 C.2     9  MOL9        0.3074
   5418  O86      142.6980   73.4470  123.3730 O.3     9  MOL9       -0.4582
   5419  O86      142.2190   71.3030  124.0050 O.2     9  MOL9       -0.2508
   5420  S87      137.0280   62.1280  121.1250 S.3     9  MOL9       -0.1607
   5421  C87      138.4820   63.1220  120.7030 C.3     9  MOL9        0.0058
   5422  C87      137.5550   61.1990  122.5410 C.3     9  MOL9       -0.0178
   5423  C87      146.2700   80.0720  128.6500 C.2     9  MOL9        0.3344
   5424  C87      147.4580   80.0320  129.5100 C.2     9  MOL9        0.0264
   5425  C87      147.9660   78.8330  129.8200 C.2     9  MOL9       -0.0890
   5426  C87      148.0250   81.3240  130.0340 C.3     9  MOL9       -0.0335
   5427  O87      145.7450   81.1390  128.4210 O.2     9  MOL9       -0.2453
   5428  O87      145.7170   78.9160  128.1410 O.3     9  MOL9       -0.4577
   5429  C87      144.4760   79.1210  127.4490 C.3     9  MOL9        0.1293
   5430  C88      143.5570   77.9160  127.4120 C.3     9  MOL9        0.1341
   5431  C88      143.0550   77.2160  126.1080 C.3     9  MOL9       -0.0244
   5432  C88      144.0510   70.8120  131.9000 C.3     9  MOL9        0.0162
   5433  C88      143.4430   70.5730  133.3130 C.3     9  MOL9       -0.0305
   5434  C88      143.0050   71.5220  134.4100 C.3     9  MOL9        0.0050
   5435  S88      141.8280   72.8820  134.2020 S.3     9  MOL9       -0.0928
   5436  C88      143.8540   72.2170  131.2960 C.3     9  MOL9       -0.0403
   5437  C88      145.0280   73.0670  130.8280 C.3     9  MOL9       -0.0515
   5438  C88      144.6700   73.7880  129.5360 C.3     9  MOL9       -0.0429
   5439  C88      143.8870   75.0440  129.8140 C.3     9  MOL9        0.0450
   5440  C89      143.5110   75.6730  128.5030 C.2     9  MOL9        0.3074
   5441  O89      143.9270   76.9770  128.4670 O.3     9  MOL9       -0.4582
   5442  O89      142.9120   75.0760  127.6520 O.2     9  MOL9       -0.2508
   5443  S89      145.6770   70.0220  131.6910 S.3     9  MOL9       -0.0897
   5444  C89      142.2000   69.3910  114.5910 C.2     9  MOL9        0.3344
   5445  C89      141.1620   68.7400  113.8030 C.2     9  MOL9        0.0264
   5446  C89      140.8790   67.5200  114.2390 C.2     9  MOL9       -0.0890
   5447  C89      140.4720   69.3750  112.6450 C.3     9  MOL9       -0.0335
   5448  O89      142.7150   70.4340  114.2500 O.2     9  MOL9       -0.2453
   5449  O89      142.5600   68.7880  115.7820 O.3     9  MOL9       -0.4577
   5450  C90      142.6780   69.6580  116.9070 C.3     9  MOL9        0.1293
   5451  C90      143.7740   69.1550  117.7760 C.3     9  MOL9        0.1341
   5452  C90      144.7720   70.1770  118.3870 C.3     9  MOL9       -0.0244
   5453  S90      141.1130   64.6350  125.7760 S.3     9  MOL9       -0.0897
   5454  C90      141.8000   66.3050  125.5760 C.3     9  MOL9        0.0162
   5455  C90      142.1760   67.1390  126.7980 C.3     9  MOL9       -0.0305
   5456  C90      142.4730   68.5230  126.2670 C.3     9  MOL9        0.0050
   5457  S90      143.2040   69.6540  127.4450 S.3     9  MOL9       -0.0928
   5458  C90      142.9110   66.2940  124.5370 C.3     9  MOL9       -0.0403
   5459  C90      142.4430   67.0560  123.2890 C.3     9  MOL9       -0.0515
   5460  C91      143.4640   67.7310  122.3910 C.3     9  MOL9       -0.0429
   5461  C91      143.2750   67.5210  120.8900 C.3     9  MOL9        0.0450
   5462  C91      143.0440   68.6390  119.9110 C.2     9  MOL9        0.3074
   5463  O91      143.4300   68.1340  118.7180 O.3     9  MOL9       -0.4582
   5464  O91      142.6390   69.7610  120.0330 O.2     9  MOL9       -0.2508
   5465  S91      144.1980   70.4810  125.8930 S.3     9  MOL9       -0.0897
   5466  C91      140.7070   90.7350  114.6210 C.3     9  MOL9       -0.0559
   5467  C91      140.3000   90.7050  116.0790 C.3     9  MOL9       -0.0533
   5468  C91      140.6300   89.2770  116.5240 C.3     9  MOL9       -0.0531
   5469  C91      139.8340   88.9430  117.7260 C.3     9  MOL9       -0.0531
   5470  C92      140.1640   87.7370  118.5440 C.3     9  MOL9       -0.0531
   5471  C92      139.3080   87.9090  119.7980 C.3     9  MOL9       -0.0531
   5472  C92      139.7590   87.2490  121.0920 C.3     9  MOL9       -0.0531
   5473  C92      140.8640   86.1890  121.0900 C.3     9  MOL9       -0.0530
   5474  C92      141.7500   86.2340  122.2990 C.3     9  MOL9       -0.0500
   5475  C92      141.9060   84.8670  122.8830 C.3     9  MOL9       -0.0185
   5476  C92      143.2160   84.4440  123.4900 C.3     9  MOL9        0.0925
   5477  C92      141.2690   91.8540  113.7860 C.3     9  MOL9       -0.0653
   5478  C92      143.5730   81.3200  121.6730 C.3     9  MOL9        0.0537
   5479  C92      143.7510   82.0860  122.9420 C.2     9  MOL9        0.3099
   5480  O93      143.5670   83.3710  122.6320 O.3     9  MOL9       -0.4644
   5481  O93      144.0260   81.6420  124.0230 O.2     9  MOL9       -0.2505
   5482  C93      143.4230   82.3050  120.4820 C.3     9  MOL9       -0.0523
   5483  C93      142.5390   80.1210  121.9180 C.3     9  MOL9       -0.0394
   5484  C93      141.2030   76.6820  121.2000 C.3     9  MOL9       -0.0497
   5485 5H93      144.5770   95.4660  126.1590 H       9  MOL9        0.2951
   5486 6H93      144.1230   92.9580  126.6060 H       9  MOL9        0.0377
   5487 7H93      144.6710   94.3970  127.3800 H       9  MOL9        0.0377
   5488 8H93      146.3970   92.1190  127.9880 H       9  MOL9        0.0270
   5489 9H93      144.7840   91.5970  128.1730 H       9  MOL9        0.0270
   5490 0H94      144.3400   92.3240  130.0680 H       9  MOL9        0.0266
   5491 1H94      145.2590   93.6670  130.3270 H       9  MOL9        0.0266
   5492 2H94      146.3270   90.8210  129.9190 H       9  MOL9        0.0276
   5493 3H94      145.3420   91.2840  131.3270 H       9  MOL9        0.0276
   5494 4H94      148.9080   92.6410  134.6910 H       9  MOL9        0.0385
   5495 5H94      149.5640   92.0020  133.2800 H       9  MOL9        0.0385
   5496 6H94      146.4090   92.5570  133.1260 H       9  MOL9        0.0284
   5497 7H94      147.2500   91.4320  134.0800 H       9  MOL9        0.0284
   5498 8H94      146.4570  107.5530  129.0670 H       9  MOL9        0.0276
   5499 9H94      146.3890  107.1160  130.7150 H       9  MOL9        0.0276
   5500 0H95      143.8320  108.1140  127.6190 H       9  MOL9        0.0240
   5501 1H95      145.0440  109.0180  128.3280 H       9  MOL9        0.0240
   5502 2H95      143.4770  109.0650  129.0220 H       9  MOL9        0.0240
   5503 3H95      141.7200  103.8690  128.6170 H       9  MOL9        0.0735
   5504 4H95      143.3170  103.2350  128.4270 H       9  MOL9        0.0735
   5505 5H95      142.0220  101.9030  129.6710 H       9  MOL9        0.0765
   5506 6H95      143.5820  101.3270  131.1620 H       9  MOL9        0.0266
   5507 7H95      144.5870  102.6720  130.9560 H       9  MOL9        0.0266
   5508 8H95      144.1780  101.8470  129.4900 H       9  MOL9        0.0266
   5509 9H95      142.2910   97.4490  137.8030 H       9  MOL9        0.0421
   5510 0H96      144.9100   97.3620  136.5230 H       9  MOL9        0.0284
   5511 1H96      144.1290   96.6390  137.8640 H       9  MOL9        0.0284
   5512 2H96      146.4220   98.6080  137.6910 H       9  MOL9        0.0385
   5513 3H96      146.1840   97.0150  138.1350 H       9  MOL9        0.0385
   5514 4H96      141.3910   98.3500  135.6700 H       9  MOL9        0.0276
   5515 5H96      140.7660   98.3990  137.1880 H       9  MOL9        0.0276
   5516 6H96      140.2460  100.6380  137.0180 H       9  MOL9        0.0266
   5517 7H96      139.6770   99.4400  135.8870 H       9  MOL9        0.0266
   5518 8H96      140.3840  102.2620  135.7680 H       9  MOL9        0.0270
   5519 9H96      139.0610  101.3150  135.2350 H       9  MOL9        0.0270
   5520 0H97      139.8270  103.0400  133.8670 H       9  MOL9        0.0377
   5521 1H97      139.3200  101.5030  133.3620 H       9  MOL9        0.0377
   5522 2H97      146.6280   90.3330  132.5000 H       9  MOL9        0.0421
   5523 3H97      146.7990  111.5850  138.7240 H       9  MOL9        0.0540
   5524 4H97      147.4270  109.9120  138.3530 H       9  MOL9        0.0540
   5525 5H97      146.9120  113.2570  136.8350 H       9  MOL9        0.0280
   5526 6H97      145.3540  112.5680  136.9460 H       9  MOL9        0.0280
   5527 7H97      146.0770  112.6240  135.3390 H       9  MOL9        0.0280
   5528 8H97      147.6690  107.4840  134.2610 H       9  MOL9        0.0735
   5529 9H97      148.6790  107.1710  135.6780 H       9  MOL9        0.0735
   5530 0H98      145.9760  105.9660  135.1910 H       9  MOL9        0.0765
   5531 1H98      147.9810  105.5590  133.9860 H       9  MOL9        0.0266
   5532 2H98      147.4380  104.1070  134.7180 H       9  MOL9        0.0266
   5533 3H98      148.8240  104.9620  135.3960 H       9  MOL9        0.0266
   5534 4H98      146.6780  100.0870  141.7990 H       9  MOL9        0.0421
   5535 5H98      148.1560   98.8790  143.8210 H       9  MOL9        0.0284
   5536 6H98      146.4440   98.9410  143.3970 H       9  MOL9        0.0284
   5537 7H98      147.2340  101.6430  143.5070 H       9  MOL9        0.0377
   5538 8H98      148.1950  100.8040  144.7730 H       9  MOL9        0.0377
   5539 9H98      149.0220  101.5300  142.9260 H       9  MOL9        0.0276
   5540 0H99      149.6480  101.1330  141.4270 H       9  MOL9        0.0276
   5541 1H99      149.0430  102.6720  140.3700 H       9  MOL9        0.0266
   5542 2H99      149.3270  103.4200  141.8730 H       9  MOL9        0.0266
   5543 3H99      148.8060  104.5200  140.0390 H       9  MOL9        0.0270
   5544 4H99      148.2500  104.9420  141.4050 H       9  MOL9        0.0270
   5545 5H99      147.3760  106.3280  140.0150 H       9  MOL9        0.0377
   5546 6H99      145.9590  105.5180  140.4360 H       9  MOL9        0.0377
   5547 7H99      145.9060  103.1900  146.3380 H       9  MOL9        0.0340
   5548 8H99      144.7120  103.2540  145.1250 H       9  MOL9        0.0340
   5549 9H99      146.3580  103.3760  144.6250 H       9  MOL9        0.0340
   5550  H10      139.3980   94.9430  123.1610 H       9  MOL9        0.0540
   5551  H10      140.1730   95.8230  124.5680 H       9  MOL9        0.0540
   5552  H10      142.1390   94.6610  121.1560 H       9  MOL9        0.0280
   5553  H10      141.7440   96.3230  120.7160 H       9  MOL9        0.0280
   5554  H10      140.4330   95.1890  120.9600 H       9  MOL9        0.0280
   5555  H10      142.0790   98.9210  123.9720 H       9  MOL9        0.0735
   5556  H10      141.8450   98.6310  125.6450 H       9  MOL9        0.0735
   5557  H10      144.2610   98.6680  123.8800 H       9  MOL9        0.0765
   5558  H10      145.0090  100.5930  125.4520 H       9  MOL9        0.0266
   5559  H10      143.3820  100.5020  126.1120 H       9  MOL9        0.0266
   5560  H10      143.6340  100.7680  124.3880 H       9  MOL9        0.0266
   5561  H10      147.7080   96.0150  130.7380 H       9  MOL9        0.0421
   5562  H10      145.8090   96.7920  131.2180 H       9  MOL9        0.0284
   5563  H10      146.1060   95.1110  131.4350 H       9  MOL9        0.0284
   5564  H10      144.8300   94.7840  133.0390 H       9  MOL9        0.0385
   5565  H10      144.0320   95.8130  132.2710 H       9  MOL9        0.0385
   5566  H10      149.0510   97.5930  130.6080 H       9  MOL9        0.0276
   5567  H10      148.2540   98.6370  131.5930 H       9  MOL9        0.0276
   5568  H10      147.3250   99.2440  129.8040 H       9  MOL9        0.0266
   5569  H10      146.2740   97.8730  129.8230 H       9  MOL9        0.0266
   5570  H10      148.4520   97.6980  127.8330 H       9  MOL9        0.0270
   5571  H10      147.5290   99.1050  127.8190 H       9  MOL9        0.0270
   5572  H10      146.5850   96.3990  126.8260 H       9  MOL9        0.0377
   5573  H10      146.9370   97.7790  126.1190 H       9  MOL9        0.0377
   5574  H10      148.6660  123.4410  129.8450 H       9  MOL9        0.0263
   5575  H10      147.3370  124.3190  130.4780 H       9  MOL9        0.0263
   5576  H10      147.4900  121.5140  129.5060 H       9  MOL9        0.0265
   5577  H10      145.9450  122.1970  129.9320 H       9  MOL9        0.0265
   5578  H10      146.6480  122.1200  132.3410 H       9  MOL9        0.0265
   5579  H10      148.1650  121.3790  131.8960 H       9  MOL9        0.0265
   5580  H10      147.2260  119.4930  131.0680 H       9  MOL9        0.0265
   5581  H10      145.7380  120.2660  130.5730 H       9  MOL9        0.0265
   5582  H10      145.1020  119.9740  133.1630 H       9  MOL9        0.0265
   5583  H10      146.3310  118.7740  133.0860 H       9  MOL9        0.0265
   5584  H10      144.5750  118.6450  130.6430 H       9  MOL9        0.0265
   5585  H10      143.5950  118.7210  132.0720 H       9  MOL9        0.0265
   5586  H10      144.0280  116.6470  132.6840 H       9  MOL9        0.0265
   5587  H10      145.7660  116.9130  132.6140 H       9  MOL9        0.0265
   5588  H10      145.8510  116.1540  130.2820 H       9  MOL9        0.0265
   5589  H10      144.1210  115.9240  130.2410 H       9  MOL9        0.0265
   5590  H10      144.2430  114.2170  131.8380 H       9  MOL9        0.0266
   5591  H10      145.5960  114.9240  132.6390 H       9  MOL9        0.0266
   5592  H10      147.1690  113.7830  131.4150 H       9  MOL9        0.0298
   5593  H10      146.0000  113.0740  130.2870 H       9  MOL9        0.0298
   5594  H10      144.7390  112.3780  132.3040 H       9  MOL9        0.0697
   5595  H10      146.2470  112.5020  133.2150 H       9  MOL9        0.0697
   5596  H10      146.0790  123.6530  128.2070 H       9  MOL9        0.0230
   5597  H10      147.6520  123.0840  127.6560 H       9  MOL9        0.0230
   5598  H10      147.3890  124.7750  127.9780 H       9  MOL9        0.0230
   5599  H10      147.4170  108.8800  132.2740 H       9  MOL9        0.0411
   5600  H10      149.2610  109.1910  130.0660 H       9  MOL9        0.0238
   5601  H10      148.2240  107.8120  129.8700 H       9  MOL9        0.0238
   5602  H10      149.1160  107.9440  131.3030 H       9  MOL9        0.0238
   5603  H10      145.8000  109.8490  129.9090 H       9  MOL9        0.0273
   5604  H10      145.2530  109.1970  131.3910 H       9  MOL9        0.0273
   5605  H10      143.7790  108.1610  131.2650 H       9  MOL9        0.0240
   5606  H10      143.3020  106.4940  131.1430 H       9  MOL9        0.0240
   5607  H10      142.5280  107.6870  130.1310 H       9  MOL9        0.0240
   5608  H10      150.1500   73.6500  138.4320 H       9  MOL9        0.2951
   5609  H10      148.6770   73.4410  137.3740 H       9  MOL9        0.0377
   5610  H10      147.7090   74.6570  138.2270 H       9  MOL9        0.0377
   5611  H10      146.2900   72.1450  138.5820 H       9  MOL9        0.0270
   5612  H10      146.8880   72.1480  136.9310 H       9  MOL9        0.0270
   5613  H10      146.1060   74.5650  136.7830 H       9  MOL9        0.0266
   5614  H10      145.4590   74.3860  138.2530 H       9  MOL9        0.0266
   5615  H10      143.7530   72.7370  136.7820 H       9  MOL9        0.0276
   5616  H10      144.9690   73.1630  135.5820 H       9  MOL9        0.0276
   5617  H10      142.6340   76.9810  135.8930 H       9  MOL9        0.0385
   5618  H10      143.9780   77.8720  136.5420 H       9  MOL9        0.0385
   5619  H10      144.9600   76.0790  136.9810 H       9  MOL9        0.0284
   5620  H10      145.3410   75.8710  135.2820 H       9  MOL9        0.0284
   5621  H10      147.0750   86.6880  140.0090 H       9  MOL9        0.0276
   5622  H10      145.7440   86.4570  141.1230 H       9  MOL9        0.0276
   5623  H10      148.4730   88.3680  140.4470 H       9  MOL9        0.0240
   5624  H10      148.3440   88.9630  142.0880 H       9  MOL9        0.0240
   5625  H10      147.9110   90.0280  140.7520 H       9  MOL9        0.0240
   5626  H10      143.4220   89.0690  140.0460 H       9  MOL9        0.0735
   5627  H10      143.6050   87.3740  140.2950 H       9  MOL9        0.0735
   5628  H10      141.5550   87.8790  139.3630 H       9  MOL9        0.0765
   5629  H10      140.9000   87.6800  137.2130 H       9  MOL9        0.0266
   5630  H10      142.5240   87.5820  136.5450 H       9  MOL9        0.0266
   5631  H10      141.8580   89.1330  137.0330 H       9  MOL9        0.0266
   5632  H10      144.6710   84.7960  133.4620 H       9  MOL9        0.0421
   5633  H10      142.1680   86.1590  132.2760 H       9  MOL9        0.0284
   5634  H10      143.6620   85.4010  131.4080 H       9  MOL9        0.0284
   5635  H10      142.1890   87.6460  131.0990 H       9  MOL9        0.0385
   5636  H10      142.6990   86.4360  130.1590 H       9  MOL9        0.0385
   5637  H10      142.1430   84.9170  134.8670 H       9  MOL9        0.0276
   5638  H10      142.9780   86.3790  134.7450 H       9  MOL9        0.0276
   5639  H10      144.8340   85.3920  136.2930 H       9  MOL9        0.0266
   5640  H10      144.6030   83.9260  135.6160 H       9  MOL9        0.0266
   5641  H10      144.2180   84.4420  138.0760 H       9  MOL9        0.0270
   5642  H10      143.6580   83.0820  137.2670 H       9  MOL9        0.0270
   5643  H10      141.9310   83.4250  138.6380 H       9  MOL9        0.0377
   5644  H10      141.2990   84.0720  137.1460 H       9  MOL9        0.0377
   5645  H10      142.7780   74.8850  136.5310 H       9  MOL9        0.0421
   5646  H10      144.0430   92.4760  120.9240 H       9  MOL9        0.0540
   5647  H10      144.8140   92.8330  119.3600 H       9  MOL9        0.0540
   5648  H10      147.3260   91.1020  119.1150 H       9  MOL9        0.0280
   5649  H10      145.8200   90.2060  118.7290 H       9  MOL9        0.0280
   5650  H11      146.9210   89.5460  119.8960 H       9  MOL9        0.0280
   5651  H11      143.7820   90.9020  124.2160 H       9  MOL9        0.0735
   5652  H11      144.6520   89.4740  123.6860 H       9  MOL9        0.0735
   5653  H11      145.5450   91.6760  125.4290 H       9  MOL9        0.0765
   5654  H11      143.8960   90.9320  126.4150 H       9  MOL9        0.0266
   5655  H11      144.9800   89.8460  127.2540 H       9  MOL9        0.0266
   5656  H11      143.9710   89.2760  126.0010 H       9  MOL9        0.0266
   5657  H11      147.8450   89.1180  130.0920 H       9  MOL9        0.0421
   5658  H11      148.4930   86.4210  130.7340 H       9  MOL9        0.0284
   5659  H11      148.2000   87.3420  132.1650 H       9  MOL9        0.0284
   5660  H11      150.1400   88.4980  130.3060 H       9  MOL9        0.0385
   5661  H11      150.5570   87.0280  131.2990 H       9  MOL9        0.0385
   5662  H11      146.4360   87.9100  128.4090 H       9  MOL9        0.0276
   5663  H11      147.3780   86.5820  128.6820 H       9  MOL9        0.0276
   5664  H11      149.3850   87.3710  128.6200 H       9  MOL9        0.0266
   5665  H11      149.1220   88.9940  128.7080 H       9  MOL9        0.0266
   5666  H11      149.2230   87.2560  126.2160 H       9  MOL9        0.0270
   5667  H11      150.4760   88.2530  126.7390 H       9  MOL9        0.0270
   5668  H11      149.8300   88.6720  124.5880 H       9  MOL9        0.0377
   5669  H11      149.9530   90.1320  125.4900 H       9  MOL9        0.0377
   5670  H11      141.9240   73.4690  138.7310 H       9  MOL9        0.0540
   5671  H11      142.0060   75.3040  138.3530 H       9  MOL9        0.0540
   5672  H11      145.4190   73.4440  140.0090 H       9  MOL9        0.0280
   5673  H11      144.2320   72.5260  139.1020 H       9  MOL9        0.0280
   5674  H11      143.8920   72.9620  140.7770 H       9  MOL9        0.0280
   5675  H11      142.9890   78.7450  139.8140 H       9  MOL9        0.0735
   5676  H11      144.3530   78.0200  140.3700 H       9  MOL9        0.0735
   5677  H11      143.9710   79.2990  137.6960 H       9  MOL9        0.0765
   5678  H11      143.7290   81.0000  138.9030 H       9  MOL9        0.0266
   5679  H11      145.4200   81.0960  138.7760 H       9  MOL9        0.0266
   5680  H11      144.6410   80.4490  140.2830 H       9  MOL9        0.0266
   5681  H11      145.5540   77.3570  130.8520 H       9  MOL9        0.0421
   5682  H11      143.9600   78.6920  130.2990 H       9  MOL9        0.0284
   5683  H11      143.1890   78.6590  131.8330 H       9  MOL9        0.0284
   5684  H11      143.6370   80.6820  130.6570 H       9  MOL9        0.0385
   5685  H11      145.3140   80.7020  131.3170 H       9  MOL9        0.0385
   5686  H11      146.0110   79.0060  133.2230 H       9  MOL9        0.0276
   5687  H11      147.1510   79.0250  131.9820 H       9  MOL9        0.0276
   5688  H11      148.2780   77.2640  132.9910 H       9  MOL9        0.0266
   5689  H11      146.8180   76.3950  133.3810 H       9  MOL9        0.0266
   5690  H11      147.7930   78.9140  134.6480 H       9  MOL9        0.0270
   5691  H11      148.7830   77.5820  134.9430 H       9  MOL9        0.0270
   5692  H11      148.3280   78.8140  136.5200 H       9  MOL9        0.0377
   5693  H11      147.7950   77.3670  137.1520 H       9  MOL9        0.0377
   5694  H11      148.6900   81.2430  155.7150 H       9  MOL9        0.0263
   5695  H11      147.5870   82.5730  155.3790 H       9  MOL9        0.0263
   5696  H11      150.4670   82.5660  154.4370 H       9  MOL9        0.0265
   5697  H11      149.2320   83.7950  154.1390 H       9  MOL9        0.0265
   5698  H11      148.2560   81.1040  153.5160 H       9  MOL9        0.0265
   5699  H11      149.6110   81.3300  152.5910 H       9  MOL9        0.0265
   5700  H11      148.6900   83.6220  151.9050 H       9  MOL9        0.0265
   5701  H11      147.3320   83.3910  152.8740 H       9  MOL9        0.0265
   5702  H11      146.1670   82.1970  151.1450 H       9  MOL9        0.0265
   5703  H11      147.4530   81.2110  150.8130 H       9  MOL9        0.0265
   5704  H11      148.5000   83.4970  150.0050 H       9  MOL9        0.0265
   5705  H11      146.9660   84.2020  150.3850 H       9  MOL9        0.0265
   5706  H11      148.1700   82.8550  148.0670 H       9  MOL9        0.0265
   5707  H11      147.5200   84.4180  148.2930 H       9  MOL9        0.0265
   5708  H11      146.1750   83.6820  146.7630 H       9  MOL9        0.0265
   5709  H11      145.2700   82.7230  147.8150 H       9  MOL9        0.0265
   5710  H11      146.0710   81.7510  145.7510 H       9  MOL9        0.0266
   5711  H11      147.0220   80.9890  147.0520 H       9  MOL9        0.0266
   5712  H11      148.2240   81.8830  144.8160 H       9  MOL9        0.0298
   5713  H11      148.9470   81.8110  146.3850 H       9  MOL9        0.0298
   5714  H11      149.4450   83.8410  145.3120 H       9  MOL9        0.0697
   5715  H11      148.5040   84.3820  146.6150 H       9  MOL9        0.0697
   5716  H11      148.4930   82.5640  157.5740 H       9  MOL9        0.0230
   5717  H11      148.5690   84.0920  156.6610 H       9  MOL9        0.0230
   5718  H11      150.0600   83.1170  156.8800 H       9  MOL9        0.0230
   5719  H11      146.3940   86.8980  143.6670 H       9  MOL9        0.0411
   5720  H11      146.2520   84.5750  141.8200 H       9  MOL9        0.0238
   5721  H11      144.9900   85.3100  142.7290 H       9  MOL9        0.0238
   5722  H11      145.9090   84.1040  143.5110 H       9  MOL9        0.0238
   5723  H11      148.1760   85.5210  141.6180 H       9  MOL9        0.0273
   5724  H11      148.5140   87.1160  142.2380 H       9  MOL9        0.0273
   5725  H11      145.6540   88.5480  142.9950 H       9  MOL9        0.0240
   5726  H11      144.4250   88.9380  141.7630 H       9  MOL9        0.0240
   5727  H11      145.6230   90.0960  142.2060 H       9  MOL9        0.0240
   5728  H11      143.8640   65.9110  116.2010 H       9  MOL9        0.2951
   5729  H11      141.7880   65.8280  116.9940 H       9  MOL9        0.0377
   5730  H11      142.5980   64.2770  117.1610 H       9  MOL9        0.0377
   5731  H11      140.8080   63.0610  116.1180 H       9  MOL9        0.0270
   5732  H11      139.7950   64.3340  115.8600 H       9  MOL9        0.0270
   5733  H11      139.4830   64.6780  118.1280 H       9  MOL9        0.0266
   5734  H11      140.2630   62.9870  118.1810 H       9  MOL9        0.0266
   5735  H11      138.6120   62.2550  118.9480 H       9  MOL9        0.0276
   5736  H11      137.5930   63.6680  118.7430 H       9  MOL9        0.0276
   5737  H11      138.0110   63.7960  123.8660 H       9  MOL9        0.0385
   5738  H11      139.3060   62.6430  123.5010 H       9  MOL9        0.0385
   5739  H11      139.9930   64.0760  121.6450 H       9  MOL9        0.0284
   5740  H11      138.6220   65.1150  121.7740 H       9  MOL9        0.0284
   5741  H11      142.9530   78.0610  122.7690 H       9  MOL9        0.0276
   5742  H11      141.3810   78.5510  122.3530 H       9  MOL9        0.0276
   5743  H11      143.0380   78.1230  118.8730 H       9  MOL9        0.0240
   5744  H11      141.5090   78.8250  119.3250 H       9  MOL9        0.0240
   5745  H11      141.6700   77.0670  118.8990 H       9  MOL9        0.0240
   5746  H11      144.1960   74.2180  120.6160 H       9  MOL9        0.0735
   5747  H11      144.6350   74.1460  122.3230 H       9  MOL9        0.0735
   5748  H11      141.8380   73.5720  121.5320 H       9  MOL9        0.0765
   5749  H11      143.1170   71.1710  121.9400 H       9  MOL9        0.0266
   5750  H12      144.5510   72.1680  121.7180 H       9  MOL9        0.0266
   5751  H12      143.4030   71.9950  120.3970 H       9  MOL9        0.0266
   5752  H12      144.6840   72.0780  127.5310 H       9  MOL9        0.0421
   5753  H12      147.2830   71.0380  127.5400 H       9  MOL9        0.0284
   5754  H12      146.3640   69.5820  127.1660 H       9  MOL9        0.0284
   5755  H12      145.1090   71.2840  129.2350 H       9  MOL9        0.0385
   5756  H12      146.8020   70.9640  129.6190 H       9  MOL9        0.0385
   5757  H12      146.9230   71.9140  125.6490 H       9  MOL9        0.0276
   5758  H12      146.3840   73.2100  126.7020 H       9  MOL9        0.0276
   5759  H12      144.9630   72.2700  124.1170 H       9  MOL9        0.0266
   5760  H12      146.0410   73.5860  124.2410 H       9  MOL9        0.0266
   5761  H12      143.9310   74.7310  124.6030 H       9  MOL9        0.0270
   5762  H12      144.4320   74.3820  126.2460 H       9  MOL9        0.0270
   5763  H12      142.0190   73.8820  125.6580 H       9  MOL9        0.0377
   5764  H12      142.8210   72.4880  126.3770 H       9  MOL9        0.0377
   5765  H12      139.2160   62.3460  120.9020 H       9  MOL9        0.0412
   5766  H12      136.8320   60.3860  122.5860 H       9  MOL9        0.0341
   5767  H12      137.4890   61.7800  123.4660 H       9  MOL9        0.0341
   5768  H12      138.5610   60.8000  122.4000 H       9  MOL9        0.0341
   5769  H12      147.5400   77.9210  129.4170 H       9  MOL9        0.0540
   5770  H12      148.8050   78.7000  130.5030 H       9  MOL9        0.0540
   5771  H12      149.1190   81.3110  129.9900 H       9  MOL9        0.0280
   5772  H12      147.7200   81.4410  131.0760 H       9  MOL9        0.0280
   5773  H12      147.6790   82.2040  129.4720 H       9  MOL9        0.0280
   5774  H12      143.9200   79.8630  128.0440 H       9  MOL9        0.0735
   5775  H12      144.6660   79.6300  126.4920 H       9  MOL9        0.0735
   5776  H12      142.6740   78.4690  127.7280 H       9  MOL9        0.0765
   5777  H12      142.1290   76.6340  126.1990 H       9  MOL9        0.0266
   5778  H12      143.7570   76.4370  125.8230 H       9  MOL9        0.0266
   5779  H12      142.8300   77.9180  125.2920 H       9  MOL9        0.0266
   5780  H12      143.4930   70.0830  131.3050 H       9  MOL9        0.0421
   5781  H12      144.0470   69.8450  133.8630 H       9  MOL9        0.0284
   5782  H12      142.5190   70.0620  133.1180 H       9  MOL9        0.0284
   5783  H12      143.8820   71.9460  134.8500 H       9  MOL9        0.0385
   5784  H12      142.5890   70.8800  135.2020 H       9  MOL9        0.0385
   5785  H12      143.2620   72.8240  131.9910 H       9  MOL9        0.0276
   5786  H12      143.2060   72.1340  130.4240 H       9  MOL9        0.0276
   5787  H12      145.9550   72.5080  130.6980 H       9  MOL9        0.0266
   5788  H12      145.1910   73.8060  131.6060 H       9  MOL9        0.0266
   5789  H12      144.0240   73.1490  128.9180 H       9  MOL9        0.0270
   5790  H12      145.5480   74.0170  128.9250 H       9  MOL9        0.0270
   5791  H12      144.3850   75.7930  130.4160 H       9  MOL9        0.0377
   5792  H12      142.9690   74.7320  130.3320 H       9  MOL9        0.0377
   5793  H12      140.1080   66.9130  113.8210 H       9  MOL9        0.0540
   5794  H12      141.4260   67.0960  115.0670 H       9  MOL9        0.0540
   5795  H12      141.1910   69.9440  112.0610 H       9  MOL9        0.0280
   5796  H12      139.6540   70.0290  112.9570 H       9  MOL9        0.0280
   5797  H12      140.0130   68.6220  112.0100 H       9  MOL9        0.0280
   5798  H12      142.9250   70.6610  116.5480 H       9  MOL9        0.0735
   5799  H12      141.7180   69.6900  117.4400 H       9  MOL9        0.0735
   5800  H12      144.2620   68.5290  117.0450 H       9  MOL9        0.0765
   5801  H12      145.6140   69.6290  118.8350 H       9  MOL9        0.0266
   5802  H12      144.3770   70.7990  119.1930 H       9  MOL9        0.0266
   5803  H12      145.1590   70.8960  117.6540 H       9  MOL9        0.0266
   5804  H12      141.0150   66.8700  125.0930 H       9  MOL9        0.0421
   5805  H12      143.1320   66.8120  127.1560 H       9  MOL9        0.0284
   5806  H12      141.4690   67.0980  127.6390 H       9  MOL9        0.0284
   5807  H12      141.6360   69.0090  125.7710 H       9  MOL9        0.0385
   5808  H12      143.2210   68.3730  125.4870 H       9  MOL9        0.0385
   5809  H12      143.1640   65.2550  124.3520 H       9  MOL9        0.0276
   5810  H12      143.8370   66.7030  124.9190 H       9  MOL9        0.0276
   5811  H12      141.7800   67.8700  123.6120 H       9  MOL9        0.0266
   5812  H12      141.8420   66.3570  122.7130 H       9  MOL9        0.0266
   5813  H12      144.3950   67.2190  122.5910 H       9  MOL9        0.0270
   5814  H12      143.5390   68.7800  122.7170 H       9  MOL9        0.0270
   5815  H12      142.4680   66.8220  120.7120 H       9  MOL9        0.0377
   5816  H12      144.1710   67.0440  120.4660 H       9  MOL9        0.0377
   5817  H12      139.8750   90.3660  114.0230 H       9  MOL9        0.0263
   5818  H12      141.4900   89.9890  114.5870 H       9  MOL9        0.0263
   5819  H12      139.2220   90.8830  116.2220 H       9  MOL9        0.0265
   5820  H12      140.8390   91.4240  116.6990 H       9  MOL9        0.0265
   5821  H12      141.7000   89.1420  116.6880 H       9  MOL9        0.0265
   5822  H12      140.3470   88.5640  115.7600 H       9  MOL9        0.0265
   5823  H12      138.7880   88.8950  117.4000 H       9  MOL9        0.0265
   5824  H12      140.0170   89.7720  118.4020 H       9  MOL9        0.0265
   5825  H12      141.2310   87.7390  118.7690 H       9  MOL9        0.0265
   5826  H12      139.9980   86.8110  117.9900 H       9  MOL9        0.0265
   5827  H12      138.2590   87.6390  119.6070 H       9  MOL9        0.0265
   5828  H12      139.2370   88.9810  120.0410 H       9  MOL9        0.0265
   5829  H12      138.8490   86.8120  121.5100 H       9  MOL9        0.0265
   5830  H12      140.0360   88.0570  121.7720 H       9  MOL9        0.0265
   5831  H12      141.4610   86.1290  120.1690 H       9  MOL9        0.0265
   5832  H12      140.4110   85.2230  121.2260 H       9  MOL9        0.0265
   5833  H12      141.2590   86.8300  123.0610 H       9  MOL9        0.0266
   5834  H12      142.7120   86.6190  121.9560 H       9  MOL9        0.0266
   5835  H12      141.8360   84.2340  122.0030 H       9  MOL9        0.0298
   5836  H12      141.0500   84.6510  123.5430 H       9  MOL9        0.0298
   5837  H12      143.0350   84.2050  124.5330 H       9  MOL9        0.0697
   5838  H12      144.0440   85.1430  123.4200 H       9  MOL9        0.0697
   5839  H12      140.4740   92.4560  113.3730 H       9  MOL9        0.0230
   5840  H12      141.7170   91.3410  112.9270 H       9  MOL9        0.0230
   5841  H12      142.0120   92.5000  114.2490 H       9  MOL9        0.0230
   5842  H12      144.5970   81.0200  121.6070 H       9  MOL9        0.0411
   5843  H12      143.3940   81.7740  119.5360 H       9  MOL9        0.0238
   5844  H12      144.2620   82.9890  120.4020 H       9  MOL9        0.0238
   5845  H12      142.6140   83.0240  120.5840 H       9  MOL9        0.0238
   5846  H12      141.6050   80.3400  121.4020 H       9  MOL9        0.0273
   5847  H12      142.3730   80.2320  122.9900 H       9  MOL9        0.0273
   5848  H12      141.3940   76.3160  122.2060 H       9  MOL9        0.0240
   5849  H12      141.0480   75.8210  120.5470 H       9  MOL9        0.0240
   5850  H13      140.3240   77.3270  121.1830 H       9  MOL9        0.0240
   5851  O65       86.5360  109.4010  129.1510 O.2    10  MOL10      -0.2510
   5852  O65       85.9660  109.2200  127.0560 O.3    10  MOL10      -0.4806
   5853  C65       85.7070  109.0090  128.3730 C.2    10  MOL10       0.3047
   5854  C65       84.3270  108.2090  128.4480 C.3    10  MOL10       0.0448
   5855  C65       83.0540  108.1560  129.4140 C.3    10  MOL10      -0.0430
   5856  C65       81.4410  108.1530  129.0970 C.3    10  MOL10      -0.0515
   5857  C65       80.5110  108.3980  130.4390 C.3    10  MOL10      -0.0403
   5858  S65       77.7020  112.9920  129.3390 S.3    10  MOL10      -0.0928
   5859  C65       77.5450  111.2110  130.3550 C.3    10  MOL10       0.0050
   5860  C66       77.9870  109.6110  130.3340 C.3    10  MOL10      -0.0305
   5861  C66       83.2940  112.9870  116.9090 C.2    10  MOL10       0.3129
   5862  C66       82.6050  113.8100  115.7180 C.3    10  MOL10       0.0622
   5863  C66       82.0780  115.2440  115.9110 C.3    10  MOL10      -0.0370
   5864  C66       83.5800  114.1120  114.6150 C.3    10  MOL10      -0.0497
   5865  O66       84.2490  113.3160  117.5540 O.2    10  MOL10      -0.2502
   5866  O66       82.6170  111.7950  117.1030 O.3    10  MOL10      -0.4605
   5867  C66       82.8450  110.6700  118.0470 C.3    10  MOL10       0.1290
   5868  C66       81.6920  109.9740  118.8500 C.3    10  MOL10       0.1341
   5869  C66       81.3950  110.9270  119.9370 C.3    10  MOL10      -0.0244
   5870  C67       74.7090  108.1000  122.7780 C.3    10  MOL10       0.0162
   5871  C67       74.1640  109.3050  123.7440 C.3    10  MOL10      -0.0305
   5872  C67       73.3020  110.6540  123.9640 C.3    10  MOL10       0.0050
   5873  S67       71.5080  110.9720  123.4850 S.3    10  MOL10      -0.0928
   5874  C67       75.2610  107.3190  121.3840 C.3    10  MOL10      -0.0403
   5875  C67       75.8620  106.9790  119.8990 C.3    10  MOL10      -0.0515
   5876  C67       76.8910  107.2340  118.6720 C.3    10  MOL10      -0.0429
   5877  C67       78.3880  107.6280  118.2140 C.3    10  MOL10       0.0450
   5878  C67       79.9070  108.0150  118.5540 C.2    10  MOL10       0.3074
   5879  O67       80.3430  109.3170  118.5950 O.3    10  MOL10      -0.4582
   5880  O68       80.6710  107.1150  118.6690 O.2    10  MOL10      -0.2508
   5881  C68       79.1150  109.1010  131.2200 C.3    10  MOL10       0.0162
   5882  C68       76.5350  117.3560  113.9630 C.2    10  MOL10       0.3344
   5883  C68       75.5120  117.5500  112.8420 C.2    10  MOL10       0.0264
   5884  C68       74.1910  117.6000  113.0660 C.2    10  MOL10      -0.0890
   5885  C68       75.8690  117.6220  111.3810 C.3    10  MOL10      -0.0335
   5886  O68       77.7080  117.3580  113.6870 O.2    10  MOL10      -0.2453
   5887  O68       76.1200  117.1730  115.2580 O.3    10  MOL10      -0.4577
   5888  C68       76.5990  116.6370  116.5660 C.3    10  MOL10       0.1293
   5889  C68       76.1900  115.3220  117.4000 C.3    10  MOL10       0.1341
   5890  C69       76.8500  115.7480  118.7450 C.3    10  MOL10      -0.0244
   5891  C69       69.6190  113.2260  122.8450 C.3    10  MOL10       0.0162
   5892  C69       68.1960  112.6950  123.0000 C.3    10  MOL10      -0.0313
   5893  C69       67.4790  113.1460  121.7530 C.3    10  MOL10      -0.0056
   5894  S69       66.7340  111.8540  120.7860 S.3    10  MOL10      -0.1641
   5895  C69       69.7190  114.6940  122.0350 C.3    10  MOL10      -0.0403
   5896  C69       70.3980  115.2660  120.5900 C.3    10  MOL10      -0.0515
   5897  C69       71.1720  115.3360  119.0790 C.3    10  MOL10      -0.0429
   5898  C69       72.0810  114.9040  117.6830 C.3    10  MOL10       0.0450
   5899  C69       73.4430  114.0860  117.0560 C.2    10  MOL10       0.3074
   5900  O70       74.8690  114.4650  117.1850 O.3    10  MOL10      -0.4582
   5901  O70       73.2700  113.1160  116.4000 O.2    10  MOL10      -0.2508
   5902  C70       66.5310  112.6250  119.1300 C.3    10  MOL10      -0.0181
   5903  S70       70.7120  112.7460  124.2720 S.3    10  MOL10      -0.0897
   5904  C70       88.2560  107.3570  124.8360 C.2    10  MOL10       0.3344
   5905  C70       88.8760  106.0600  125.0360 C.2    10  MOL10       0.0264
   5906  C70       88.1530  104.9570  124.7560 C.2    10  MOL10      -0.0890
   5907  C70       90.3080  106.0480  125.4350 C.3    10  MOL10      -0.0335
   5908  O70       88.7810  108.4070  125.1290 O.2    10  MOL10      -0.2453
   5909  O70       87.0510  107.3840  124.2380 O.3    10  MOL10      -0.4577
   5910  C71       86.9200  108.1990  123.0970 C.3    10  MOL10       0.1293
   5911  C71       86.7710  109.6530  123.3660 C.3    10  MOL10       0.1341
   5912  C71       86.4930  110.3810  122.0580 C.3    10  MOL10      -0.0244
   5913  S71       78.7450  113.3450  127.5280 S.3    10  MOL10      -0.0897
   5914  C71       79.7220  111.9330  126.6100 C.3    10  MOL10       0.0162
   5915  C71       79.5220  110.3490  126.2820 C.3    10  MOL10      -0.0305
   5916  C71       78.5860  109.0940  125.8470 C.3    10  MOL10       0.0050
   5917  S71       77.2050  108.1440  125.0430 S.3    10  MOL10      -0.0928
   5918  C71       80.5180  112.8140  125.6560 C.3    10  MOL10      -0.0403
   5919  C71       81.8350  112.3030  125.0360 C.3    10  MOL10      -0.0515
   5920  C72       83.3530  112.4630  125.3360 C.3    10  MOL10      -0.0429
   5921  C72       84.4410  111.3670  125.5290 C.3    10  MOL10       0.0450
   5922  C72       84.7180  110.2420  124.5500 C.2    10  MOL10       0.3074
   5923  O72       86.0570  110.0960  124.5290 O.3    10  MOL10      -0.4582
   5924  O72       83.9580  109.6470  123.8590 O.2    10  MOL10      -0.2508
   5925  S72       75.6770  107.2370  124.1390 S.3    10  MOL10      -0.0897
   5926  C72       82.9380  123.8350  102.5130 C.3    10  MOL10      -0.0559
   5927  C72       82.4920  122.7150  103.4210 C.3    10  MOL10      -0.0533
   5928  C72       81.0820  122.4900  103.9740 C.3    10  MOL10      -0.0531
   5929  C72       81.2190  121.2740  104.8990 C.3    10  MOL10      -0.0531
   5930  C73       80.1770  120.1920  105.1910 C.3    10  MOL10      -0.0531
   5931  C73       80.9080  118.8770  105.5840 C.3    10  MOL10      -0.0531
   5932  C73       80.5250  118.4260  106.9840 C.3    10  MOL10      -0.0531
   5933  C73       81.5800  118.1310  108.0470 C.3    10  MOL10      -0.0530
   5934  C73       80.7620  117.7350  109.2640 C.3    10  MOL10      -0.0500
   5935  C73       81.0380  118.0540  110.7090 C.3    10  MOL10      -0.0185
   5936  C73       80.0630  117.2600  111.5070 C.3    10  MOL10       0.0925
   5937  C73       84.4200  123.5990  102.1820 C.3    10  MOL10      -0.0653
   5938  C73       80.7800  117.3200  115.0370 C.3    10  MOL10       0.0537
   5939  C73       80.4310  117.9790  113.7290 C.2    10  MOL10       0.3099
   5940  O74       80.5820  117.0200  112.7970 O.3    10  MOL10      -0.4644
   5941  O74       80.0070  119.0680  113.4310 O.2    10  MOL10      -0.2505
   5942  C74       81.3590  118.0470  116.2650 C.3    10  MOL10      -0.0523
   5943  C74       81.4900  115.9700  114.6930 C.3    10  MOL10      -0.0394
   5944  C74       81.5700  112.9600  115.0580 C.3    10  MOL10      -0.0497
   5945  O74       69.7200  101.6350  147.0300 O.2    10  MOL10      -0.2510
   5946  O74       70.8140  103.5190  147.6260 O.3    10  MOL10      -0.4806
   5947  C74       70.7380  102.2380  147.1730 C.2    10  MOL10       0.3047
   5948  C74       72.1190  101.7800  146.7730 C.3    10  MOL10       0.0448
   5949  C74       72.5150  100.2970  146.9420 C.3    10  MOL10      -0.0430
   5950  C75       73.0240   99.8300  145.5970 C.3    10  MOL10      -0.0515
   5951  C75       73.9730   98.6580  145.4140 C.3    10  MOL10      -0.0403
   5952  S75       76.3500  100.5050  141.3540 S.3    10  MOL10      -0.0928
   5953  C75       74.8860   99.6350  141.8450 C.3    10  MOL10       0.0050
   5954  C75       74.5630   99.8150  143.2880 C.3    10  MOL10      -0.0305
   5955  C75       71.5500  106.8130  132.1910 C.2    10  MOL10       0.3129
   5956  C75       70.0840  106.9830  132.6300 C.3    10  MOL10       0.0622
   5957  C75       70.0000  106.5420  134.0750 C.3    10  MOL10      -0.0370
   5958  C75       69.9360  108.4980  132.7580 C.3    10  MOL10      -0.0497
   5959  O75       72.1530  107.7780  131.8160 O.2    10  MOL10      -0.2502
   5960  O76       72.1490  105.5640  132.3870 O.3    10  MOL10      -0.4605
   5961  C76       71.6820  104.3540  131.7640 C.3    10  MOL10       0.1290
   5962  C76       72.5500  103.0930  131.6690 C.3    10  MOL10       0.1341
   5963  C76       73.9780  102.8560  131.1940 C.3    10  MOL10      -0.0244
   5964  C76       77.6350  103.0410  135.0640 C.3    10  MOL10       0.0162
   5965  C76       78.9190  103.2040  133.9800 C.3    10  MOL10      -0.0305
   5966  C76       80.2150  103.6280  133.0340 C.3    10  MOL10       0.0050
   5967  S76       81.3070  105.0480  132.5720 S.3    10  MOL10      -0.0928
   5968  C76       76.2950  102.7640  134.3940 C.3    10  MOL10      -0.0403
   5969  C76       75.0240  103.2660  135.1900 C.3    10  MOL10      -0.0515
   5970  C77       73.6790  102.4940  135.3950 C.3    10  MOL10      -0.0429
   5971  C77       73.1710  101.2410  134.6540 C.3    10  MOL10       0.0450
   5972  C77       72.6740  101.3420  133.2970 C.2    10  MOL10       0.3074
   5973  O77       72.6910  102.6490  133.0140 O.3    10  MOL10      -0.4582
   5974  O77       72.3310  100.4540  132.5520 O.2    10  MOL10      -0.2508
   5975  S77       76.3340   97.9330  144.1580 S.3    10  MOL10      -0.0897
   5976  C77       74.5990   98.5030  144.0290 C.3    10  MOL10       0.0162
   5977  C77       89.4520  107.5080  131.7030 C.2    10  MOL10       0.3344
   5978  C77       90.7540  107.8760  131.2210 C.2    10  MOL10       0.0264
   5979  C77       91.0660  107.6640  129.9340 C.2    10  MOL10      -0.0890
   5980  C78       91.6390  108.4190  132.2660 C.3    10  MOL10      -0.0335
   5981  O78       89.2320  107.2900  132.8750 O.2    10  MOL10      -0.2453
   5982  O78       88.4780  107.4460  130.7780 O.3    10  MOL10      -0.4577
   5983  C78       87.3040  106.7910  131.1640 C.3    10  MOL10       0.1293
   5984  C78       86.0700  107.5700  131.3360 C.3    10  MOL10       0.1341
   5985  C78       84.9610  106.4190  131.3030 C.3    10  MOL10      -0.0244
   5986  C78       80.7750  107.9780  134.0370 C.3    10  MOL10       0.0162
   5987  C78       79.7910  108.5590  135.0890 C.3    10  MOL10      -0.0305
   5988  C78       79.7090  110.0400  135.3060 C.3    10  MOL10       0.0050
   5989  S78       78.3620  110.6800  134.3610 S.3    10  MOL10      -0.0928
   5990  C79       82.1620  107.7840  134.5850 C.3    10  MOL10      -0.0403
   5991  C79       82.7770  109.2320  134.8150 C.3    10  MOL10      -0.0515
   5992  C79       84.2710  109.8590  135.0570 C.3    10  MOL10      -0.0429
   5993  C79       85.6290  110.2440  134.1810 C.3    10  MOL10       0.0450
   5994  C79       86.6300  109.4060  133.2270 C.2    10  MOL10       0.3074
   5995  O79       86.0180  108.8500  132.1240 O.3    10  MOL10      -0.4582
   5996  O79       87.7720  109.2520  133.5500 O.2    10  MOL10      -0.2508
   5997  S79       79.3580  110.3160  132.6150 S.3    10  MOL10      -0.0897
   5998  S79       80.2460  106.7810  132.6980 S.3    10  MOL10      -0.0897
   5999  C79       71.3100   99.3720  142.9310 C.2    10  MOL10       0.3344
   6000  C80       71.1710   98.3040  143.9310 C.2    10  MOL10       0.0264
   6001  C80       71.7580   97.1930  143.5410 C.2    10  MOL10      -0.0890
   6002  C80       70.5830   98.4040  145.3150 C.3    10  MOL10      -0.0335
   6003  O80       71.0170  100.5070  143.2000 O.2    10  MOL10      -0.2453
   6004  O80       71.7680   99.1220  141.6520 O.3    10  MOL10      -0.4577
   6005  C80       71.2680  100.1020  140.7500 C.3    10  MOL10       0.1293
   6006  C80       72.1660  101.1920  140.3700 C.3    10  MOL10       0.1341
   6007  C80       71.5890  101.8610  139.1050 C.3    10  MOL10      -0.0244
   6008  S80       77.7640  100.0990  142.7830 S.3    10  MOL10      -0.0897
   6009  C80       78.8230  101.4380  142.1790 C.3    10  MOL10       0.0162
   6010  C81       79.3340  100.9030  140.8100 C.3    10  MOL10      -0.0305
   6011  C81       79.2710  101.6800  139.5070 C.3    10  MOL10       0.0050
   6012  S81       77.7520  101.2580  138.5430 S.3    10  MOL10      -0.0928
   6013  C81       78.0160  102.7370  142.2370 C.3    10  MOL10      -0.0403
   6014  C81       77.0190  102.9860  143.4010 C.3    10  MOL10      -0.0515
   6015  C81       75.5910  103.5700  143.0640 C.3    10  MOL10      -0.0429
   6016  C81       74.0940  103.4340  142.6390 C.3    10  MOL10       0.0450
   6017  C81       73.4990  102.8540  141.3810 C.2    10  MOL10       0.3074
   6018  O81       72.6230  101.8500  141.5820 O.3    10  MOL10      -0.4582
   6019  O81       73.6080  103.3600  140.3060 O.2    10  MOL10      -0.2508
   6020  S82       77.2140  101.9620  136.6420 S.3    10  MOL10      -0.0897
   6021  C82       55.1870  105.8910  138.1180 C.3    10  MOL10      -0.0559
   6022  C82       56.3980  106.7800  138.1830 C.3    10  MOL10      -0.0533
   6023  C82       57.5570  105.9640  138.7410 C.3    10  MOL10      -0.0531
   6024  C82       58.5290  105.6410  137.6060 C.3    10  MOL10      -0.0531
   6025  C82       59.7510  104.7170  137.8530 C.3    10  MOL10      -0.0531
   6026  C82       60.8410  105.3910  137.0770 C.3    10  MOL10      -0.0531
   6027  C82       62.3480  105.3250  137.0680 C.3    10  MOL10      -0.0531
   6028  C82       63.3630  104.2240  137.0930 C.3    10  MOL10      -0.0530
   6029  C82       64.2530  104.3040  138.3040 C.3    10  MOL10      -0.0500
   6030  C83       64.8840  105.6760  138.5550 C.3    10  MOL10      -0.0185
   6031  C83       65.0700  106.6080  137.3660 C.3    10  MOL10       0.0925
   6032  C83       53.9890  106.5200  137.5130 C.3    10  MOL10      -0.0653
   6033  C83       67.6610  106.3160  134.8610 C.3    10  MOL10       0.0537
   6034  C83       66.4890  106.9700  135.5090 C.2    10  MOL10       0.3099
   6035  O83       66.0490  106.1220  136.4620 O.3    10  MOL10      -0.4644
   6036  O83       66.0010  108.0510  135.2590 O.2    10  MOL10      -0.2505
   6037  C83       68.1130  104.9800  135.4510 C.3    10  MOL10      -0.0523
   6038  C83       68.8960  107.1820  134.9230 C.3    10  MOL10      -0.0394
   6039  C83       69.1300  106.3560  131.6160 C.3    10  MOL10      -0.0497
   6040  O84       95.9280   93.0380  153.6270 O.2    10  MOL10      -0.2510
   6041  O84       94.7380   94.9380  153.4710 O.3    10  MOL10      -0.4806
   6042  C84       94.8760   93.5770  153.5170 C.2    10  MOL10       0.3047
   6043  C84       93.5130   92.9070  153.3570 C.3    10  MOL10       0.0448
   6044  C84       93.5200   91.3390  153.4920 C.3    10  MOL10      -0.0430
   6045  C84       92.3140   90.2710  153.2850 C.3    10  MOL10      -0.0516
   6046  C84       91.0730   89.2350  153.0800 C.3    10  MOL10      -0.0411
   6047  S84       86.2590   91.3240  152.1030 S.3    10  MOL10      -0.0928
   6048  C84       86.8270   89.6770  152.6580 C.3    10  MOL10       0.0049
   6049  C84       88.3410   89.8510  152.3850 C.3    10  MOL10      -0.0313
   6050  C85       89.9070   99.4450  143.3640 C.2    10  MOL10       0.3129
   6051  C85       89.9090   98.9470  141.9410 C.3    10  MOL10       0.0622
   6052  C85       88.8010   99.4090  140.9540 C.3    10  MOL10      -0.0370
   6053  C85       91.3390   98.9190  141.5470 C.3    10  MOL10      -0.0497
   6054  O85       90.8300   99.9610  143.9480 O.2    10  MOL10      -0.2502
   6055  O85       88.7330   99.0640  143.9430 O.3    10  MOL10      -0.4605
   6056  C85       88.8410   98.8180  145.3330 C.3    10  MOL10       0.1290
   6057  C85       88.5050   97.4550  145.7880 C.3    10  MOL10       0.1341
   6058  C85       88.8940   97.5010  147.2480 C.3    10  MOL10      -0.0244
   6059  C85       83.4060   98.7240  148.2450 C.3    10  MOL10       0.0162
   6060  C86       82.5650   99.2010  149.4260 C.3    10  MOL10      -0.0305
   6061  C86       81.1130   98.8520  149.1750 C.3    10  MOL10       0.0050
   6062  S86       80.2370   97.7290  150.2360 S.3    10  MOL10      -0.0928
   6063  C86       84.2690   99.8430  147.7680 C.3    10  MOL10      -0.0403
   6064  C86       85.5150   99.4740  146.9810 C.3    10  MOL10      -0.0515
   6065  C86       85.1360   98.8060  145.6560 C.3    10  MOL10      -0.0429
   6066  C86       84.9550   97.2900  145.7410 C.3    10  MOL10       0.0450
   6067  C86       86.2020   96.7420  146.3250 C.2    10  MOL10       0.3074
   6068  O86       87.1120   97.3580  145.5590 O.3    10  MOL10      -0.4582
   6069  O86       86.4000   95.9620  147.2230 O.2    10  MOL10      -0.2508
   6070  S87       89.0750   87.3010  153.3260 S.3    10  MOL10      -0.1607
   6071  C87       89.4730   89.0540  153.1070 C.3    10  MOL10       0.0058
   6072  C87       87.5910   87.3290  154.2960 C.3    10  MOL10      -0.0178
   6073  C87       81.9990  103.3830  140.8630 C.2    10  MOL10       0.3344
   6074  C87       81.0810  104.4100  141.3660 C.2    10  MOL10       0.0264
   6075  C87       80.6870  104.3260  142.6430 C.2    10  MOL10      -0.0890
   6076  C87       80.5950  105.4800  140.4270 C.3    10  MOL10      -0.0335
   6077  O87       82.3070  103.3910  139.6910 O.2    10  MOL10      -0.2453
   6078  O87       82.4780  102.3850  141.6860 O.3    10  MOL10      -0.4577
   6079  C87       83.2390  101.3810  140.9990 C.3    10  MOL10       0.1293
   6080  C88       83.2620  100.0230  141.6730 C.3    10  MOL10       0.1341
   6081  C88       84.5530   99.2910  142.1640 C.3    10  MOL10      -0.0244
   6082  C88       78.4090   97.2100  147.9500 C.3    10  MOL10       0.0162
   6083  C88       77.0180   96.5270  147.8020 C.3    10  MOL10      -0.0305
   6084  C88       75.9920   96.5320  146.6860 C.3    10  MOL10       0.0050
   6085  S88       76.3240   96.0860  144.9640 S.3    10  MOL10      -0.0928
   6086  C88       79.0910   97.6700  146.6460 C.3    10  MOL10      -0.0403
   6087  C88       79.5420   99.1100  146.4350 C.3    10  MOL10      -0.0515
   6088  C88       80.8840   99.1390  145.7180 C.3    10  MOL10      -0.0429
   6089  C88       80.7070   98.9890  144.2290 C.3    10  MOL10       0.0450
   6090  C89       82.0640   98.9610  143.5880 C.2    10  MOL10       0.3074
   6091  O89       82.1440   99.9130  142.6080 O.3    10  MOL10      -0.4582
   6092  O89       82.9140   98.1780  143.9130 O.2    10  MOL10      -0.2508
   6093  S89       78.4980   98.3190  149.3890 S.3    10  MOL10      -0.0897
   6094  C89       95.6970   95.3050  149.5480 C.2    10  MOL10       0.3344
   6095  C89       96.5020   94.1040  149.7230 C.2    10  MOL10       0.0264
   6096  C89       96.0210   93.2980  150.6600 C.2    10  MOL10      -0.0890
   6097  C89       97.7230   93.7940  148.9260 C.3    10  MOL10      -0.0335
   6098  O89       96.0630   96.2370  148.8650 O.2    10  MOL10      -0.2453
   6099  O89       94.4620   95.3330  150.1680 O.3    10  MOL10      -0.4577
   6100  C90       93.3770   95.8000  149.3660 C.3    10  MOL10       0.1293
   6101  C90       92.4310   96.5390  150.2440 C.3    10  MOL10       0.1341
   6102  C90       91.8220   97.8730  149.7310 C.3    10  MOL10      -0.0244
   6103  S90       84.3580   91.9700  152.5820 S.3    10  MOL10      -0.0897
   6104  C90       84.6060   93.3320  151.4040 C.3    10  MOL10       0.0162
   6105  C90       83.4100   94.0120  150.7440 C.3    10  MOL10      -0.0305
   6106  C90       83.9940   94.9050  149.6720 C.3    10  MOL10       0.0050
   6107  S90       82.8380   96.0350  148.9060 S.3    10  MOL10      -0.0928
   6108  C90       85.5870   94.3450  151.9740 C.3    10  MOL10      -0.0403
   6109  C90       86.8930   94.2910  151.1690 C.3    10  MOL10      -0.0515
   6110  C91       87.7720   95.5260  151.0750 C.3    10  MOL10      -0.0429
   6111  C91       89.2680   95.2970  151.2790 C.3    10  MOL10       0.0450
   6112  C91       90.3120   95.6080  150.2410 C.2    10  MOL10       0.3074
   6113  O91       91.4580   95.7570  150.9430 O.3    10  MOL10      -0.4582
   6114  O91       90.2650   95.7410  149.0510 O.2    10  MOL10      -0.2508
   6115  S91       84.3780   97.3270  148.7090 S.3    10  MOL10      -0.0897
   6116  C91       96.7950  103.4500  129.7930 C.3    10  MOL10      -0.0559
   6117  C91       95.3600  103.0400  129.5430 C.3    10  MOL10      -0.0533
   6118  C91       94.8290  102.6900  130.9370 C.3    10  MOL10      -0.0531
   6119  C91       93.6520  101.8030  130.8050 C.3    10  MOL10      -0.0531
   6120  C92       92.7610  101.5450  131.9750 C.3    10  MOL10      -0.0531
   6121  C92       91.5600  100.8260  131.3600 C.3    10  MOL10      -0.0531
   6122  C92       90.2140  100.9080  132.0640 C.3    10  MOL10      -0.0531
   6123  C92       90.1100  101.4270  133.5010 C.3    10  MOL10      -0.0530
   6124  C92       88.8620  102.2140  133.7720 C.3    10  MOL10      -0.0500
   6125  C92       88.2040  101.7330  135.0260 C.3    10  MOL10      -0.0185
   6126  C92       87.5130  102.7050  135.9420 C.3    10  MOL10       0.0925
   6127  C92       97.6550  104.4680  129.0960 C.3    10  MOL10      -0.0653
   6128  C92       89.1540  101.6770  139.0150 C.3    10  MOL10       0.0537
   6129  C92       87.9170  102.1490  138.3250 C.2    10  MOL10       0.3099
   6130  O93       88.2990  102.5620  137.1150 O.3    10  MOL10      -0.4644
   6131  O93       86.8030  102.1740  138.7720 O.2    10  MOL10      -0.2505
   6132  C93       90.3980  102.0070  138.1470 C.3    10  MOL10      -0.0523
   6133  C93       88.9010  100.2130  139.6140 C.3    10  MOL10      -0.0394
   6134  C93       89.5130   97.5040  142.1480 C.3    10  MOL10      -0.0497
   6135 5H93       85.3290  108.7610  126.5090 H      10  MOL10       0.2951
   6136 6H93       84.7800  107.2300  128.5210 H      10  MOL10       0.0377
   6137 7H93       84.0530  108.3430  127.4250 H      10  MOL10       0.0377
   6138 8H93       83.2490  108.8640  130.1860 H      10  MOL10       0.0270
   6139 9H93       83.1180  107.1830  129.9280 H      10  MOL10       0.0270
   6140 0H94       81.2860  107.0660  128.9560 H      10  MOL10       0.0266
   6141 1H94       81.0480  108.4810  128.1430 H      10  MOL10       0.0266
   6142 2H94       81.2620  108.1810  131.1890 H      10  MOL10       0.0276
   6143 3H94       79.9280  107.4740  130.2450 H      10  MOL10       0.0276
   6144 4H94       76.4640  111.1950  130.3860 H      10  MOL10       0.0385
   6145 5H94       77.8080  111.5310  131.3410 H      10  MOL10       0.0385
   6146 6H94       78.1440  108.9540  129.4600 H      10  MOL10       0.0284
   6147 7H94       77.0950  109.1870  130.7750 H      10  MOL10       0.0284
   6148 8H94       82.9320  115.7500  116.3350 H      10  MOL10       0.0276
   6149 9H94       81.2690  115.4590  116.5870 H      10  MOL10       0.0276
   6150 0H95       84.5330  113.6810  114.7680 H      10  MOL10       0.0240
   6151 1H95       83.8110  115.1520  114.4480 H      10  MOL10       0.0240
   6152 2H95       83.1980  113.7540  113.6680 H      10  MOL10       0.0240
   6153 3H95       83.4320  109.8810  117.5660 H      10  MOL10       0.0735
   6154 4H95       83.5120  111.0330  118.8520 H      10  MOL10       0.0735
   6155 5H95       82.2690  109.2540  119.3880 H      10  MOL10       0.0765
   6156 6H95       80.6760  110.3630  120.4950 H      10  MOL10       0.0266
   6157 7H95       80.8990  111.8650  119.7500 H      10  MOL10       0.0266
   6158 8H95       82.3400  111.1640  120.4040 H      10  MOL10       0.0266
   6159 9H95       73.9230  107.3360  122.9540 H      10  MOL10       0.0421
   6160 0H96       75.0660  109.6710  124.2740 H      10  MOL10       0.0284
   6161 1H96       73.7320  108.6200  124.4870 H      10  MOL10       0.0284
   6162 2H96       73.8890  111.5530  123.7510 H      10  MOL10       0.0385
   6163 3H96       73.3790  110.6230  125.0410 H      10  MOL10       0.0385
   6164 4H96       76.1400  106.9770  121.8910 H      10  MOL10       0.0276
   6165 5H96       74.6580  106.4060  121.4710 H      10  MOL10       0.0276
   6166 6H96       74.9650  106.9380  119.2490 H      10  MOL10       0.0266
   6167 7H96       76.0610  105.9220  120.1440 H      10  MOL10       0.0266
   6168 8H96       76.2850  107.8120  117.9400 H      10  MOL10       0.0270
   6169 9H96       76.8350  106.2180  118.2380 H      10  MOL10       0.0270
   6170 0H97       78.2480  107.7010  117.1230 H      10  MOL10       0.0377
   6171 1H97       78.7000  106.5750  118.3080 H      10  MOL10       0.0377
   6172 2H97       78.6480  108.1770  131.5880 H      10  MOL10       0.0421
   6173 3H97       73.4810  117.6330  112.2410 H      10  MOL10       0.0540
   6174 4H97       73.7370  117.4610  114.0400 H      10  MOL10       0.0540
   6175 5H97       75.4420  118.5190  110.9200 H      10  MOL10       0.0280
   6176 6H97       75.3750  116.8150  110.8410 H      10  MOL10       0.0280
   6177 7H97       76.9440  117.5230  111.2170 H      10  MOL10       0.0280
   6178 8H97       77.6870  116.6900  116.5890 H      10  MOL10       0.0735
   6179 9H97       76.2090  117.4240  117.2220 H      10  MOL10       0.0735
   6180 0H98       76.7680  114.4780  117.1370 H      10  MOL10       0.0765
   6181 1H98       77.8510  116.1200  118.4670 H      10  MOL10       0.0266
   6182 2H98       77.0760  114.9720  119.4780 H      10  MOL10       0.0266
   6183 3H98       76.3730  116.5780  119.2810 H      10  MOL10       0.0266
   6184 4H98       69.8510  112.3480  122.2700 H      10  MOL10       0.0421
   6185 5H98       67.7020  113.0910  123.8700 H      10  MOL10       0.0284
   6186 6H98       68.2120  111.5940  123.0850 H      10  MOL10       0.0284
   6187 7H98       68.1970  113.5000  121.0100 H      10  MOL10       0.0377
   6188 8H98       66.8450  113.9590  122.1020 H      10  MOL10       0.0377
   6189 9H98       68.6830  115.0630  121.9410 H      10  MOL10       0.0276
   6190 0H99       70.1280  115.4810  122.6720 H      10  MOL10       0.0276
   6191 1H99       71.2880  115.6470  121.0970 H      10  MOL10       0.0266
   6192 2H99       69.8120  116.2000  120.4540 H      10  MOL10       0.0266
   6193 3H99       71.7210  116.2630  119.3610 H      10  MOL10       0.0270
   6194 4H99       70.4060  115.9210  118.6470 H      10  MOL10       0.0270
   6195 5H99       71.9040  115.7860  117.1130 H      10  MOL10       0.0377
   6196 6H99       71.5150  114.1470  117.1840 H      10  MOL10       0.0377
   6197 7H99       65.5140  112.9350  118.8530 H      10  MOL10       0.0340
   6198 8H99       66.7870  111.9210  118.3480 H      10  MOL10       0.0340
   6199 9H99       67.2100  113.4600  118.9990 H      10  MOL10       0.0340
   6200  H10       88.5480  103.9570  124.8850 H      10  MOL10       0.0540
   6201  H10       87.1490  105.0110  124.3480 H      10  MOL10       0.0540
   6202  H10       90.3990  106.3310  126.4820 H      10  MOL10       0.0280
   6203  H10       90.9400  106.7260  124.8490 H      10  MOL10       0.0280
   6204  H10       90.7050  105.0420  125.2680 H      10  MOL10       0.0280
   6205  H10       87.8030  108.1070  122.4580 H      10  MOL10       0.0735
   6206  H10       86.1320  107.7320  122.5030 H      10  MOL10       0.0735
   6207  H10       87.7760  109.9510  123.6560 H      10  MOL10       0.0765
   6208  H10       86.2660  111.4410  122.1600 H      10  MOL10       0.0266
   6209  H10       85.6830  109.9290  121.4790 H      10  MOL10       0.0266
   6210  H10       87.4030  110.3110  121.4660 H      10  MOL10       0.0266
   6211  H10       80.6340  111.7080  127.0990 H      10  MOL10       0.0421
   6212  H10       80.2860  110.3410  125.5330 H      10  MOL10       0.0284
   6213  H10       79.9730  109.8550  127.1540 H      10  MOL10       0.0284
   6214  H10       78.4190  108.5320  126.7750 H      10  MOL10       0.0385
   6215  H10       79.2750  108.2920  125.5530 H      10  MOL10       0.0385
   6216  H10       80.7740  113.6150  126.2890 H      10  MOL10       0.0276
   6217  H10       79.8830  113.3420  124.9380 H      10  MOL10       0.0276
   6218  H10       81.7440  112.8200  124.1030 H      10  MOL10       0.0266
   6219  H10       81.7080  111.2690  124.8630 H      10  MOL10       0.0266
   6220  H10       83.5780  113.1860  126.1140 H      10  MOL10       0.0270
   6221  H10       83.7060  112.9840  124.4490 H      10  MOL10       0.0270
   6222  H10       84.6100  110.9590  126.5180 H      10  MOL10       0.0377
   6223  H10       85.3660  111.9030  125.4850 H      10  MOL10       0.0377
   6224  H10       82.8320  124.7700  103.0480 H      10  MOL10       0.0263
   6225  H10       82.3100  123.9550  101.6330 H      10  MOL10       0.0263
   6226  H10       83.1320  122.8680  104.2740 H      10  MOL10       0.0265
   6227  H10       82.8170  121.7780  102.9520 H      10  MOL10       0.0265
   6228  H10       80.3760  122.3200  103.1720 H      10  MOL10       0.0265
   6229  H10       80.7090  123.3590  104.5350 H      10  MOL10       0.0265
   6230  H10       81.4880  121.6990  105.8620 H      10  MOL10       0.0265
   6231  H10       82.0930  120.7200  104.5460 H      10  MOL10       0.0265
   6232  H10       79.5260  119.9640  104.3540 H      10  MOL10       0.0265
   6233  H10       79.4830  120.5330  105.9760 H      10  MOL10       0.0265
   6234  H10       82.0000  118.9570  105.4770 H      10  MOL10       0.0265
   6235  H10       80.6270  118.0820  104.8810 H      10  MOL10       0.0265
   6236  H10       79.8930  117.5350  106.8880 H      10  MOL10       0.0265
   6237  H10       79.8900  119.2110  107.4220 H      10  MOL10       0.0265
   6238  H10       82.1750  119.0010  108.2930 H      10  MOL10       0.0265
   6239  H10       82.2890  117.3510  107.7360 H      10  MOL10       0.0265
   6240  H10       80.6060  116.6660  109.2120 H      10  MOL10       0.0266
   6241  H10       79.7750  118.1740  109.1250 H      10  MOL10       0.0266
   6242  H10       80.8620  119.1040  110.9220 H      10  MOL10       0.0298
   6243  H10       82.0100  117.7670  111.1130 H      10  MOL10       0.0298
   6244  H10       80.0250  116.2830  111.0460 H      10  MOL10       0.0697
   6245  H10       79.0490  117.6690  111.5410 H      10  MOL10       0.0697
   6246  H10       84.6030  122.5830  101.8230 H      10  MOL10       0.0230
   6247  H10       85.0480  123.7520  103.0640 H      10  MOL10       0.0230
   6248  H10       84.8230  124.2600  101.4130 H      10  MOL10       0.0230
   6249  H10       79.7510  117.1280  115.3610 H      10  MOL10       0.0411
   6250  H10       81.8780  118.9670  116.0430 H      10  MOL10       0.0238
   6251  H10       82.0560  117.4300  116.8310 H      10  MOL10       0.0238
   6252  H10       80.5890  118.2550  117.0130 H      10  MOL10       0.0238
   6253  H10       82.2380  116.1630  113.9350 H      10  MOL10       0.0273
   6254  H10       80.7540  115.3510  114.1790 H      10  MOL10       0.0273
   6255  H10       80.9010  113.5730  114.4620 H      10  MOL10       0.0240
   6256  H10       80.9640  112.4080  115.7500 H      10  MOL10       0.0240
   6257  H10       82.0700  112.2670  114.4080 H      10  MOL10       0.0240
   6258  H10       71.7330  103.7870  147.6760 H      10  MOL10       0.2951
   6259  H10       72.8500  102.3990  147.2810 H      10  MOL10       0.0377
   6260  H10       72.1070  102.0530  145.7100 H      10  MOL10       0.0377
   6261  H10       71.6990   99.6590  147.3050 H      10  MOL10       0.0270
   6262  H10       73.3170  100.2320  147.6770 H      10  MOL10       0.0270
   6263  H10       73.6220  100.6090  145.1780 H      10  MOL10       0.0266
   6264  H10       72.1790   99.9170  144.9560 H      10  MOL10       0.0266
   6265  H10       73.6490   97.6900  145.7740 H      10  MOL10       0.0276
   6266  H10       74.8080   98.9940  146.0090 H      10  MOL10       0.0276
   6267  H10       74.8000   98.5920  141.5410 H      10  MOL10       0.0385
   6268  H10       74.1310  100.1770  141.2960 H      10  MOL10       0.0385
   6269  H10       73.5570  100.2510  143.3040 H      10  MOL10       0.0284
   6270  H10       75.2220  100.5370  143.7710 H      10  MOL10       0.0284
   6271  H10       70.9550  106.7910  134.5490 H      10  MOL10       0.0276
   6272  H10       69.8980  105.4710  134.0940 H      10  MOL10       0.0276
   6273  H10       70.5320  108.7790  133.6360 H      10  MOL10       0.0240
   6274  H10       68.9310  108.8920  132.9380 H      10  MOL10       0.0240
   6275  H10       70.3380  109.0070  131.8820 H      10  MOL10       0.0240
   6276  H10       71.2160  104.5760  130.8020 H      10  MOL10       0.0735
   6277  H10       70.8750  103.9810  132.3820 H      10  MOL10       0.0735
   6278  H10       71.9300  102.3910  131.0860 H      10  MOL10       0.0765
   6279  H10       74.0980  101.7640  131.1170 H      10  MOL10       0.0266
   6280  H10       74.6790  103.1890  131.9660 H      10  MOL10       0.0266
   6281  H10       74.3020  103.2710  130.2520 H      10  MOL10       0.0266
   6282  H10       77.5110  103.9430  135.6120 H      10  MOL10       0.0421
   6283  H10       78.8850  102.3330  133.3650 H      10  MOL10       0.0284
   6284  H10       79.6400  103.3530  134.7600 H      10  MOL10       0.0284
   6285  H10       80.1320  103.0390  132.1210 H      10  MOL10       0.0385
   6286  H10       80.9840  102.9790  133.4910 H      10  MOL10       0.0385
   6287  H10       76.2400  101.7010  134.2920 H      10  MOL10       0.0276
   6288  H10       76.3930  103.1020  133.3620 H      10  MOL10       0.0276
   6289  H10       74.7080  104.2900  134.9640 H      10  MOL10       0.0266
   6290  H10       75.3230  103.4470  136.2170 H      10  MOL10       0.0266
   6291  H10       72.9140  103.2770  135.4230 H      10  MOL10       0.0270
   6292  H10       73.6810  102.1890  136.4450 H      10  MOL10       0.0270
   6293  H10       72.4150  100.7650  135.2850 H      10  MOL10       0.0377
   6294  H10       73.9670  100.5190  134.5260 H      10  MOL10       0.0377
   6295  H10       74.0540   97.7760  143.4380 H      10  MOL10       0.0421
   6296  H10       90.4290  107.0710  129.2930 H      10  MOL10       0.0540
   6297  H10       91.9690  107.9550  129.4180 H      10  MOL10       0.0540
   6298  H10       92.0040  109.4410  132.0940 H      10  MOL10       0.0280
   6299  H10       92.4190  107.7030  132.2540 H      10  MOL10       0.0280
   6300  H11       91.1690  108.3700  133.2540 H      10  MOL10       0.0280
   6301  H11       87.0800  106.0640  130.3680 H      10  MOL10       0.0735
   6302  H11       87.4960  106.2210  132.0650 H      10  MOL10       0.0735
   6303  H11       85.8220  107.9610  130.3750 H      10  MOL10       0.0765
   6304  H11       84.8830  106.1310  130.2470 H      10  MOL10       0.0266
   6305  H11       83.9390  106.6010  131.6420 H      10  MOL10       0.0266
   6306  H11       85.2100  105.4710  131.7880 H      10  MOL10       0.0266
   6307  H11       80.9310  108.7810  133.3720 H      10  MOL10       0.0421
   6308  H11       80.1250  108.1480  136.0280 H      10  MOL10       0.0284
   6309  H11       78.7570  108.2630  134.9810 H      10  MOL10       0.0284
   6310  H11       80.5730  110.5560  134.9260 H      10  MOL10       0.0385
   6311  H11       79.4900  110.2540  136.3610 H      10  MOL10       0.0385
   6312  H11       82.6190  107.0190  133.9400 H      10  MOL10       0.0276
   6313  H11       82.2340  107.2660  135.5270 H      10  MOL10       0.0276
   6314  H11       82.2370  109.4170  135.7130 H      10  MOL10       0.0266
   6315  H11       82.2420  109.9000  134.1390 H      10  MOL10       0.0266
   6316  H11       84.6370  109.2730  135.9030 H      10  MOL10       0.0270
   6317  H11       84.1020  110.8270  135.5300 H      10  MOL10       0.0270
   6318  H11       86.3010  110.4820  135.0120 H      10  MOL10       0.0377
   6319  H11       85.4670  111.2210  133.7010 H      10  MOL10       0.0377
   6320  H11       71.8310   96.3330  144.1810 H      10  MOL10       0.0540
   6321  H11       72.2950   97.2300  142.6010 H      10  MOL10       0.0540
   6322  H11       70.3830   99.4240  145.6640 H      10  MOL10       0.0280
   6323  H11       71.3000   97.9730  146.0210 H      10  MOL10       0.0280
   6324  H11       69.6680   97.8250  145.3690 H      10  MOL10       0.0280
   6325  H11       70.9590   99.6070  139.8610 H      10  MOL10       0.0735
   6326  H11       70.3010  100.4940  141.0750 H      10  MOL10       0.0735
   6327  H11       73.0500  100.7790  139.9390 H      10  MOL10       0.0765
   6328  H11       71.9420  101.2910  138.2310 H      10  MOL10       0.0266
   6329  H11       71.9900  102.8510  138.9010 H      10  MOL10       0.0266
   6330  H11       70.4930  101.8330  139.0360 H      10  MOL10       0.0266
   6331  H11       79.7040  101.4870  142.8290 H      10  MOL10       0.0421
   6332  H11       80.4000  100.6640  140.9670 H      10  MOL10       0.0284
   6333  H11       78.9060   99.9250  140.5550 H      10  MOL10       0.0284
   6334  H11       80.1570  101.2520  139.0200 H      10  MOL10       0.0385
   6335  H11       79.4170  102.7480  139.7000 H      10  MOL10       0.0385
   6336  H11       77.3980  102.5750  141.4000 H      10  MOL10       0.0276
   6337  H11       78.5810  103.6330  141.9690 H      10  MOL10       0.0276
   6338  H11       77.4310  103.8380  143.9750 H      10  MOL10       0.0266
   6339  H11       77.0710  102.1350  144.0820 H      10  MOL10       0.0266
   6340  H11       75.8830  104.1000  142.1750 H      10  MOL10       0.0270
   6341  H11       75.4750  104.3870  143.7850 H      10  MOL10       0.0270
   6342  H11       73.9850  104.4920  142.3770 H      10  MOL10       0.0377
   6343  H11       73.3100  103.3580  143.3940 H      10  MOL10       0.0377
   6344  H11       54.9390  105.4690  139.0950 H      10  MOL10       0.0263
   6345  H11       55.3950  105.0790  137.4400 H      10  MOL10       0.0263
   6346  H11       56.1920  107.6770  138.7820 H      10  MOL10       0.0265
   6347  H11       56.6110  107.1240  137.1570 H      10  MOL10       0.0265
   6348  H11       57.1470  105.0680  139.1730 H      10  MOL10       0.0265
   6349  H11       58.0150  106.4020  139.6310 H      10  MOL10       0.0265
   6350  H11       58.8570  106.6110  137.2190 H      10  MOL10       0.0265
   6351  H11       57.9470  105.2700  136.7610 H      10  MOL10       0.0265
   6352  H11       59.6690  103.7340  137.4290 H      10  MOL10       0.0265
   6353  H11       59.8890  104.4560  138.9010 H      10  MOL10       0.0265
   6354  H11       60.7560  106.4270  137.3720 H      10  MOL10       0.0265
   6355  H11       60.4870  105.3580  136.0380 H      10  MOL10       0.0265
   6356  H11       62.6740  105.8890  137.9290 H      10  MOL10       0.0265
   6357  H11       62.5580  105.9970  136.2290 H      10  MOL10       0.0265
   6358  H11       64.1140  104.5000  136.3940 H      10  MOL10       0.0265
   6359  H11       63.0610  103.2390  136.7820 H      10  MOL10       0.0265
   6360  H11       65.0330  103.5710  138.1410 H      10  MOL10       0.0266
   6361  H11       63.6500  104.0550  139.1580 H      10  MOL10       0.0266
   6362  H11       65.8670  105.5780  139.0380 H      10  MOL10       0.0298
   6363  H11       64.2620  106.1590  139.3180 H      10  MOL10       0.0298
   6364  H11       65.4080  107.5310  137.7930 H      10  MOL10       0.0697
   6365  H11       64.1810  106.8990  136.8060 H      10  MOL10       0.0697
   6366  H11       53.1590  105.8380  137.7040 H      10  MOL10       0.0230
   6367  H11       54.1420  106.6060  136.4310 H      10  MOL10       0.0230
   6368  H11       53.8020  107.5020  137.9470 H      10  MOL10       0.0230
   6369  H11       67.3500  106.1930  133.8190 H      10  MOL10       0.0411
   6370  H11       69.0850  105.0750  135.9560 H      10  MOL10       0.0238
   6371  H11       68.2760  104.2510  134.6800 H      10  MOL10       0.0238
   6372  H11       67.3920  104.5200  136.1130 H      10  MOL10       0.0238
   6373  H11       69.2390  107.2230  135.9730 H      10  MOL10       0.0273
   6374  H11       68.6820  108.2200  134.6550 H      10  MOL10       0.0273
   6375  H11       68.1380  106.2780  132.0600 H      10  MOL10       0.0240
   6376  H11       69.4470  105.3780  131.2490 H      10  MOL10       0.0240
   6377  H11       69.0040  106.9560  130.7130 H      10  MOL10       0.0240
   6378  H11       93.8370   95.2130  153.2890 H      10  MOL10       0.2951
   6379  H11       93.1440   93.3000  152.3930 H      10  MOL10       0.0377
   6380  H11       92.8610   93.3320  154.1280 H      10  MOL10       0.0377
   6381  H11       93.9290   91.2120  154.4940 H      10  MOL10       0.0270
   6382  H11       94.3000   90.8760  152.9240 H      10  MOL10       0.0270
   6383  H11       92.0690   90.6990  152.3290 H      10  MOL10       0.0266
   6384  H11       91.8940   90.6450  154.1830 H      10  MOL10       0.0266
   6385  H11       91.1750   88.8250  154.0570 H      10  MOL10       0.0276
   6386  H11       91.4990   88.5440  152.3550 H      10  MOL10       0.0276
   6387  H11       86.3740   88.8610  152.0870 H      10  MOL10       0.0385
   6388  H11       86.6180   89.5170  153.7160 H      10  MOL10       0.0385
   6389  H11       88.5060   90.8100  152.8600 H      10  MOL10       0.0284
   6390  H11       88.4970   90.0410  151.3150 H      10  MOL10       0.0284
   6391  H11       87.9300   99.6500  141.5840 H      10  MOL10       0.0276
   6392  H11       88.4460   98.4690  140.4780 H      10  MOL10       0.0276
   6393  H11       91.8150   99.8400  141.8230 H      10  MOL10       0.0240
   6394  H11       91.4740   98.7720  140.4900 H      10  MOL10       0.0240
   6395  H11       91.8050   98.1450  142.1620 H      10  MOL10       0.0240
   6396  H11       89.8270   99.1030  145.7140 H      10  MOL10       0.0735
   6397  H11       88.0990   99.4270  145.8600 H      10  MOL10       0.0735
   6398  H11       88.9970   96.6840  145.1890 H      10  MOL10       0.0765
   6399  H11       88.4090   96.7540  147.8750 H      10  MOL10       0.0266
   6400  H12       88.6090   98.4860  147.6310 H      10  MOL10       0.0266
   6401  H12       89.9740   97.4110  147.3660 H      10  MOL10       0.0266
   6402  H12       82.7990   98.4360  147.3860 H      10  MOL10       0.0421
   6403  H12       82.6100  100.3020  149.4650 H      10  MOL10       0.0284
   6404  H12       82.9570   98.8400  150.3860 H      10  MOL10       0.0284
   6405  H12       81.0390   98.4260  148.1720 H      10  MOL10       0.0385
   6406  H12       80.5560   99.7920  149.1810 H      10  MOL10       0.0385
   6407  H12       84.5580  100.4100  148.6470 H      10  MOL10       0.0276
   6408  H12       83.5980  100.4800  147.1800 H      10  MOL10       0.0276
   6409  H12       86.2000   98.8470  147.5640 H      10  MOL10       0.0266
   6410  H12       86.0880  100.3950  146.8550 H      10  MOL10       0.0266
   6411  H12       85.8880   99.0050  144.8740 H      10  MOL10       0.0270
   6412  H12       84.2080   99.2620  145.2990 H      10  MOL10       0.0270
   6413  H12       84.8880   96.8920  144.7180 H      10  MOL10       0.0377
   6414  H12       84.0620   96.9750  146.2720 H      10  MOL10       0.0377
   6415  H12       89.2000   89.3620  154.1130 H      10  MOL10       0.0412
   6416  H12       87.5410   86.3190  154.7010 H      10  MOL10       0.0341
   6417  H12       86.6990   87.5070  153.6860 H      10  MOL10       0.0341
   6418  H12       87.6620   88.0560  155.1070 H      10  MOL10       0.0341
   6419  H12       81.0660  103.5480  143.2980 H      10  MOL10       0.0540
   6420  H12       79.9580  105.0030  143.0880 H      10  MOL10       0.0540
   6421  H12       80.5840  106.4550  140.9250 H      10  MOL10       0.0280
   6422  H12       79.5760  105.2360  140.1180 H      10  MOL10       0.0280
   6423  H12       81.2150  105.5740  139.5240 H      10  MOL10       0.0280
   6424  H12       82.7100  101.1990  140.0510 H      10  MOL10       0.0735
   6425  H12       84.2090  101.7980  140.6910 H      10  MOL10       0.0735
   6426  H12       83.0170   99.4710  140.7680 H      10  MOL10       0.0765
   6427  H12       84.4790   98.2010  142.2690 H      10  MOL10       0.0266
   6428  H12       84.7630   99.5800  143.1900 H      10  MOL10       0.0266
   6429  H12       85.4120   99.4200  141.4910 H      10  MOL10       0.0266
   6430  H12       78.9940   96.3990  148.3950 H      10  MOL10       0.0421
   6431  H12       76.4040   96.7330  148.6830 H      10  MOL10       0.0284
   6432  H12       77.2320   95.4770  147.8630 H      10  MOL10       0.0284
   6433  H12       75.5300   97.4960  146.6660 H      10  MOL10       0.0385
   6434  H12       75.1900   95.8570  147.0240 H      10  MOL10       0.0385
   6435  H12       78.4570   97.3940  145.7960 H      10  MOL10       0.0276
   6436  H12       79.9880   97.0730  146.4910 H      10  MOL10       0.0276
   6437  H12       79.5980   99.6950  147.3540 H      10  MOL10       0.0266
   6438  H12       78.7940   99.5670  145.7950 H      10  MOL10       0.0266
   6439  H12       81.5010   98.2900  146.0440 H      10  MOL10       0.0270
   6440  H12       81.4620  100.0400  145.9410 H      10  MOL10       0.0270
   6441  H12       80.1190   99.7540  143.7400 H      10  MOL10       0.0377
   6442  H12       80.2200   98.0170  144.0690 H      10  MOL10       0.0377
   6443  H12       96.4450   92.3480  150.8900 H      10  MOL10       0.0540
   6444  H12       95.1470   93.5820  151.2260 H      10  MOL10       0.0540
   6445  H12       98.2970   94.7030  148.7740 H      10  MOL10       0.0280
   6446  H12       97.4840   93.3450  147.9600 H      10  MOL10       0.0280
   6447  H12       98.3420   93.0620  149.4390 H      10  MOL10       0.0280
   6448  H12       93.7720   96.4760  148.6030 H      10  MOL10       0.0735
   6449  H12       92.8940   94.9430  148.8790 H      10  MOL10       0.0735
   6450  H12       93.1050   96.7140  151.0680 H      10  MOL10       0.0765
   6451  H12       91.3070   98.3740  150.5630 H      10  MOL10       0.0266
   6452  H12       91.0680   97.7780  148.9460 H      10  MOL10       0.0266
   6453  H12       92.5700   98.5550  149.3070 H      10  MOL10       0.0266
   6454  H12       85.1550   92.8910  150.5840 H      10  MOL10       0.0421
   6455  H12       82.9890   94.7150  151.4350 H      10  MOL10       0.0284
   6456  H12       82.6040   93.3420  150.4130 H      10  MOL10       0.0284
   6457  H12       84.5530   94.3820  148.9010 H      10  MOL10       0.0385
   6458  H12       84.7270   95.5250  150.1890 H      10  MOL10       0.0385
   6459  H12       85.7080   94.1140  153.0280 H      10  MOL10       0.0276
   6460  H12       85.1810   95.3470  151.9930 H      10  MOL10       0.0276
   6461  H12       86.6440   94.0530  150.1260 H      10  MOL10       0.0266
   6462  H12       87.4630   93.4560  151.5660 H      10  MOL10       0.0266
   6463  H12       87.5010   96.1280  151.9320 H      10  MOL10       0.0270
   6464  H12       87.4950   96.0520  150.1490 H      10  MOL10       0.0270
   6465  H12       89.4510   94.2680  151.5590 H      10  MOL10       0.0377
   6466  H12       89.6230   95.8970  152.1290 H      10  MOL10       0.0377
   6467  H12       97.4150  102.5540  129.7940 H      10  MOL10       0.0263
   6468  H12       96.7530  103.8200  130.8090 H      10  MOL10       0.0263
   6469  H12       95.2780  102.1490  128.8980 H      10  MOL10       0.0265
   6470  H12       94.7490  103.8280  129.0970 H      10  MOL10       0.0265
   6471  H12       94.6060  103.5860  131.5200 H      10  MOL10       0.0265
   6472  H12       95.5690  102.1380  131.5000 H      10  MOL10       0.0265
   6473  H12       94.0270  100.8520  130.4060 H      10  MOL10       0.0265
   6474  H12       93.0090  102.3200  130.0990 H      10  MOL10       0.0265
   6475  H12       92.4840  102.4960  132.4300 H      10  MOL10       0.0265
   6476  H12       93.2760  100.9960  132.7670 H      10  MOL10       0.0265
   6477  H12       91.7890   99.7710  131.1500 H      10  MOL10       0.0265
   6478  H12       91.3740  101.2340  130.3530 H      10  MOL10       0.0265
   6479  H12       89.8200   99.8900  132.0250 H      10  MOL10       0.0265
   6480  H12       89.5620  101.5000  131.4190 H      10  MOL10       0.0265
   6481  H12       90.9960  101.9550  133.8790 H      10  MOL10       0.0265
   6482  H12       89.9480  100.5890  134.1550 H      10  MOL10       0.0265
   6483  H12       88.1550  102.0220  132.9720 H      10  MOL10       0.0266
   6484  H12       89.1760  103.2540  133.8750 H      10  MOL10       0.0266
   6485  H12       89.0540  101.4080  135.6190 H      10  MOL10       0.0298
   6486  H12       87.5770  100.8560  134.7960 H      10  MOL10       0.0298
   6487  H12       86.4700  102.4130  136.0080 H      10  MOL10       0.0697
   6488  H12       87.5770  103.7580  135.6880 H      10  MOL10       0.0697
   6489  H12       98.1360  104.0330  128.2330 H      10  MOL10       0.0230
   6490  H12       98.4650  104.6610  129.8090 H      10  MOL10       0.0230
   6491  H12       97.1900  105.4110  128.8150 H      10  MOL10       0.0230
   6492  H12       89.1550  102.4620  139.7410 H      10  MOL10       0.0411
   6493  H12       91.3170  101.7660  138.6710 H      10  MOL10       0.0238
   6494  H12       90.4710  103.0640  137.9120 H      10  MOL10       0.0238
   6495  H12       90.3720  101.5990  137.1400 H      10  MOL10       0.0238
   6496  H12       89.4730   99.4850  139.0400 H      10  MOL10       0.0273
   6497  H12       87.8450  100.0900  139.3710 H      10  MOL10       0.0273
   6498  H12       88.4820   97.4900  142.4930 H      10  MOL10       0.0240
   6499  H12       90.1300   96.9980  142.8930 H      10  MOL10       0.0240
   6500  H13       89.6060   97.0040  141.1830 H      10  MOL10       0.0240
   6501  O65      136.1900  104.5240  128.7430 O.2    11  MOL11      -0.2510
   6502  O65      135.9250  105.5610  126.8460 O.3    11  MOL11      -0.4806
   6503  C65      135.6000  105.3900  128.1530 C.2    11  MOL11       0.3047
   6504  C65      134.4250  106.4240  128.4740 C.3    11  MOL11       0.0448
   6505  C65      133.9650  107.3270  129.7100 C.3    11  MOL11      -0.0430
   6506  C65      133.4980  108.9010  129.8000 C.3    11  MOL11      -0.0515
   6507  C65      133.4090  109.4690  131.3480 C.3    11  MOL11      -0.0403
   6508  S65      137.0070  113.6200  131.4940 S.3    11  MOL11      -0.0928
   6509  C65      135.2240  113.0030  132.3110 C.3    11  MOL11       0.0050
   6510  C66      133.8270  112.1610  132.0020 C.3    11  MOL11      -0.0305
   6511  C66      139.1040  111.7770  118.1540 C.2    11  MOL11       0.3129
   6512  C66      139.7310  112.9580  117.2680 C.3    11  MOL11       0.0622
   6513  C66      140.9370  113.7870  117.7440 C.3    11  MOL11      -0.0370
   6514  C66      140.3470  112.4340  116.0010 C.3    11  MOL11      -0.0497
   6515  O66      139.6760  110.8130  118.5770 O.2    11  MOL11      -0.2502
   6516  O66      137.7600  112.0220  118.3720 O.3    11  MOL11      -0.4605
   6517  C66      136.7180  111.2500  119.0980 C.3    11  MOL11       0.1290
   6518  C66      135.6840  111.9080  120.0760 C.3    11  MOL11       0.1341
   6519  C66      136.4670  112.1550  121.3030 C.3    11  MOL11      -0.0244
   6520  C67      131.6930  116.7930  125.3600 C.3    11  MOL11       0.0162
   6521  C67      132.6480  117.3700  126.5590 C.3    11  MOL11      -0.0305
   6522  C67      133.6740  118.4770  127.1340 C.3    11  MOL11       0.0050
   6523  S67      133.4660  120.3490  127.1480 S.3    11  MOL11      -0.0928
   6524  C67      131.1610  116.4410  123.7940 C.3    11  MOL11      -0.0403
   6525  C67      131.0670  116.1890  122.1790 C.3    11  MOL11      -0.0515
   6526  C67      131.6590  115.6370  120.7740 C.3    11  MOL11      -0.0429
   6527  C67      132.4930  114.4860  120.0100 C.3    11  MOL11       0.0450
   6528  C67      133.2980  113.0980  120.0080 C.2    11  MOL11       0.3074
   6529  O67      134.6690  113.0430  120.0870 O.3    11  MOL11      -0.4582
   6530  O68      132.6600  112.1140  119.8310 O.2    11  MOL11      -0.2508
   6531  C68      133.6400  110.7420  132.5210 C.3    11  MOL11       0.0162
   6532  C68      141.3910  120.0070  117.4650 C.2    11  MOL11       0.3344
   6533  C68      141.3160  121.3050  116.6580 C.2    11  MOL11       0.0264
   6534  C68      140.9660  122.4790  117.2040 C.2    11  MOL11      -0.0890
   6535  C68      141.5430  121.3850  115.1720 C.3    11  MOL11      -0.0335
   6536  O68      141.7490  118.9980  116.9120 O.2    11  MOL11      -0.2453
   6537  O68      141.0460  119.9940  118.7940 O.3    11  MOL11      -0.4577
   6538  C68      140.6280  119.0540  119.8750 C.3    11  MOL11       0.1293
   6539  C68      139.2220  118.8480  120.6310 C.3    11  MOL11       0.1341
   6540  C69      139.7740  117.9960  121.8120 C.3    11  MOL11      -0.0244
   6541  C69      135.0840  122.8850  127.2490 C.3    11  MOL11       0.0162
   6542  C69      134.1530  124.0120  127.6880 C.3    11  MOL11      -0.0313
   6543  C69      134.4170  125.1310  126.7140 C.3    11  MOL11      -0.0056
   6544  S69      133.0000  125.7220  125.8200 S.3    11  MOL11      -0.1641
   6545  C69      136.5460  123.4130  126.6100 C.3    11  MOL11      -0.0403
   6546  C69      137.3440  123.3290  125.1160 C.3    11  MOL11      -0.0515
   6547  C69      137.6940  123.0380  123.4790 C.3    11  MOL11      -0.0429
   6548  C69      137.6010  122.4520  121.8640 C.3    11  MOL11       0.0450
   6549  C69      137.2450  121.1370  120.8340 C.2    11  MOL11       0.3074
   6550  O70      138.0220  119.8900  120.6510 O.3    11  MOL11      -0.4582
   6551  O70      136.2910  121.2060  120.1350 O.2    11  MOL11      -0.2508
   6552  C70      133.7360  126.5650  124.3610 C.3    11  MOL11      -0.0181
   6553  S70      134.8970  121.3630  128.3010 S.3    11  MOL11      -0.0897
   6554  C70      134.9020  103.5270  123.9360 C.2    11  MOL11       0.3344
   6555  C70      133.8390  102.5450  123.8310 C.2    11  MOL11       0.0264
   6556  C70      132.5830  102.9840  123.6150 C.2    11  MOL11      -0.0890
   6557  C70      134.2350  101.1120  123.8630 C.3    11  MOL11      -0.0335
   6558  O70      136.0480  103.2530  124.2070 O.2    11  MOL11      -0.2453
   6559  O70      134.5940  104.8070  123.6590 O.3    11  MOL11      -0.4577
   6560  C71      135.3750  105.4580  122.6840 C.3    11  MOL11       0.1293
   6561  C71      136.7110  105.9220  123.1440 C.3    11  MOL11       0.1341
   6562  C71      137.3710  106.7300  122.0340 C.3    11  MOL11      -0.0244
   6563  S71      137.7180  113.2380  129.5340 S.3    11  MOL11      -0.0897
   6564  C71      136.6910  112.1920  128.2520 C.3    11  MOL11       0.0162
   6565  C71      135.1320  112.0300  127.8070 C.3    11  MOL11      -0.0305
   6566  C71      133.6730  112.6650  127.4770 C.3    11  MOL11       0.0050
   6567  S71      132.3880  113.8940  126.9340 S.3    11  MOL11      -0.0928
   6568  C71      137.8020  111.9540  127.2370 C.3    11  MOL11      -0.0403
   6569  C71      137.7250  110.7630  126.2590 C.3    11  MOL11      -0.0515
   6570  C72      138.3140  109.3260  126.1950 C.3    11  MOL11      -0.0429
   6571  C72      137.5810  107.9670  125.9900 C.3    11  MOL11       0.0450
   6572  C72      136.6240  107.6640  124.8530 C.2    11  MOL11       0.3074
   6573  O72      136.8800  106.3930  124.4880 O.3    11  MOL11      -0.4582
   6574  O72      135.8580  108.3870  124.3070 O.2    11  MOL11      -0.2508
   6575  S72      131.1050  115.2970  126.3360 S.3    11  MOL11      -0.0897
   6576  C72      149.8830  118.9360  105.5980 C.3    11  MOL11      -0.0559
   6577  C72      148.6490  118.7960  106.4560 C.3    11  MOL11      -0.0533
   6578  C72      147.9970  119.8890  107.3090 C.3    11  MOL11      -0.0531
   6579  C72      146.8430  119.1810  108.0290 C.3    11  MOL11      -0.0531
   6580  C73      145.4930  119.7680  108.4440 C.3    11  MOL11      -0.0531
   6581  C73      144.4380  118.6260  108.4950 C.3    11  MOL11      -0.0531
   6582  C73      143.8430  118.4810  109.8860 C.3    11  MOL11      -0.0531
   6583  C73      143.8340  117.1420  110.6190 C.3    11  MOL11      -0.0530
   6584  C73      143.1700  117.4630  111.9460 C.3    11  MOL11      -0.0500
   6585  C73      143.5040  116.9110  113.3060 C.3    11  MOL11      -0.0185
   6586  C73      142.4290  117.3790  114.2240 C.3    11  MOL11       0.0925
   6587  C73      150.1060  117.5900  104.8890 C.3    11  MOL11      -0.0653
   6588  C73      142.5690  115.7900  117.4540 C.3    11  MOL11       0.0537
   6589  C73      143.1430  116.6420  116.3550 C.2    11  MOL11       0.3099
   6590  O74      142.3060  116.4890  115.3120 O.3    11  MOL11      -0.4644
   6591  O74      144.0690  117.4130  116.2940 O.2    11  MOL11      -0.2505
   6592  C74      143.3890  115.1270  118.5760 C.3    11  MOL11      -0.0523
   6593  C74      141.5020  114.8550  116.7980 C.3    11  MOL11      -0.0394
   6594  C74      138.6380  113.8550  116.7910 C.3    11  MOL11      -0.0497
   6595  O74      123.1650  113.1410  149.2090 O.2    11  MOL11      -0.2510
   6596  O74      125.2640  112.4890  149.7270 O.3    11  MOL11      -0.4806
   6597  C74      124.0360  112.3280  149.1650 C.2    11  MOL11       0.3047
   6598  C74      124.0200  111.0340  148.3900 C.3    11  MOL11       0.0448
   6599  C74      122.7150  110.2150  148.2880 C.3    11  MOL11      -0.0430
   6600  C75      122.4680  109.9760  146.8160 C.3    11  MOL11      -0.0515
   6601  C75      121.6350  108.8260  146.2760 C.3    11  MOL11      -0.0403
   6602  S75      124.2470  108.2240  141.9910 S.3    11  MOL11      -0.0928
   6603  C75      122.9670  109.2060  142.7250 C.3    11  MOL11       0.0050
   6604  C75      122.9920  109.1680  144.2130 C.3    11  MOL11      -0.0305
   6605  C75      129.1890  116.8410  135.0540 C.2    11  MOL11       0.3129
   6606  C75      128.9040  118.1240  135.8550 C.3    11  MOL11       0.0622
   6607  C75      128.4050  117.6940  137.2170 C.3    11  MOL11      -0.0370
   6608  C75      130.3030  118.6430  136.1850 C.3    11  MOL11      -0.0497
   6609  O75      130.3020  116.6490  134.6530 O.2    11  MOL11      -0.2502
   6610  O76      128.1670  115.8910  134.9560 O.3    11  MOL11      -0.4605
   6611  C76      126.8960  116.1570  134.3340 C.3    11  MOL11       0.1290
   6612  C76      125.9510  115.0340  133.8870 C.3    11  MOL11       0.1341
   6613  C76      126.1630  113.7770  133.0540 C.3    11  MOL11      -0.0244
   6614  C76      127.2770  109.4160  135.9040 C.3    11  MOL11       0.0162
   6615  C76      127.8510  108.5650  134.5640 C.3    11  MOL11      -0.0305
   6616  C76      128.6730  107.7370  133.3830 C.3    11  MOL11       0.0050
   6617  S76      130.3670  107.2420  132.8300 S.3    11  MOL11      -0.0928
   6618  C76      126.6420  110.7560  135.5560 C.3    11  MOL11      -0.0403
   6619  C76      126.7180  111.8550  136.6910 C.3    11  MOL11      -0.0515
   6620  C77      125.5770  112.8300  137.1320 C.3    11  MOL11      -0.0429
   6621  C77      124.2570  113.1540  136.4020 C.3    11  MOL11       0.0450
   6622  C77      124.2570  114.0030  135.2280 C.2    11  MOL11       0.3074
   6623  O77      125.5200  114.4220  135.0990 O.3    11  MOL11      -0.4582
   6624  O77      123.3350  114.2750  134.4950 O.2    11  MOL11      -0.2508
   6625  S77      121.6840  106.7820  144.4050 S.3    11  MOL11      -0.0897
   6626  C77      121.7220  108.5760  144.7710 C.3    11  MOL11       0.0162
   6627  C77      135.1490  100.6280  130.2730 C.2    11  MOL11       0.3344
   6628  C77      135.9010   99.6560  129.5300 C.2    11  MOL11       0.0264
   6629  C77      135.8370   99.6540  128.1910 C.2    11  MOL11      -0.0890
   6630  C78      136.6430   98.7080  130.3810 C.3    11  MOL11      -0.0335
   6631  O78      134.8320  100.4590  131.4310 O.2    11  MOL11      -0.2453
   6632  O78      134.8360  101.7580  129.6130 O.3    11  MOL11      -0.4577
   6633  C78      133.8510  102.5600  130.2000 C.3    11  MOL11       0.1293
   6634  C78      134.2240  103.8670  130.7560 C.3    11  MOL11       0.1341
   6635  C78      132.7990  104.5840  130.8660 C.3    11  MOL11      -0.0244
   6636  C78      132.9540  108.1480  134.7010 C.3    11  MOL11       0.0162
   6637  C78      133.1810  108.9350  136.0200 C.3    11  MOL11      -0.0305
   6638  C78      134.5630  109.3590  136.4150 C.3    11  MOL11       0.0050
   6639  S78      134.8110  111.0320  135.9080 S.3    11  MOL11      -0.0928
   6640  C79      133.1580  106.6670  134.8660 C.3    11  MOL11      -0.0403
   6641  C79      134.7140  106.4360  135.1000 C.3    11  MOL11      -0.0515
   6642  C79      135.7430  105.1630  135.0370 C.3    11  MOL11      -0.0429
   6643  C79      136.5430  104.2490  133.9030 C.3    11  MOL11       0.0450
   6644  C79      136.0730  103.3500  132.6450 C.2    11  MOL11       0.3074
   6645  O79      135.4020  104.0570  131.6710 O.3    11  MOL11      -0.4582
   6646  O79      136.2510  102.1660  132.6590 O.2    11  MOL11      -0.2508
   6647  S79      134.8210  110.4800  133.9410 S.3    11  MOL11      -0.0897
   6648  S79      131.7040  108.6650  133.4060 S.3    11  MOL11      -0.0897
   6649  C79      121.6220  112.1460  144.6180 C.2    11  MOL11       0.3344
   6650  C80      120.5250  111.7140  145.4950 C.2    11  MOL11       0.0264
   6651  C80      119.6520  110.9710  144.8500 C.2    11  MOL11      -0.0890
   6652  C80      120.3960  111.9140  146.9830 C.3    11  MOL11      -0.0335
   6653  O80      122.6100  112.6570  145.0760 O.2    11  MOL11      -0.2453
   6654  O80      121.5650  111.9960  143.2460 O.3    11  MOL11      -0.4577
   6655  C80      122.3860  112.9680  142.6100 C.3    11  MOL11       0.1293
   6656  C80      123.7060  112.5400  142.1470 C.3    11  MOL11       0.1341
   6657  C80      124.2200  113.5950  141.1450 C.3    11  MOL11      -0.0244
   6658  S80      124.2240  106.4250  142.9740 S.3    11  MOL11      -0.0897
   6659  C80      125.8370  105.9760  142.2830 C.3    11  MOL11       0.0162
   6660  C81      125.5270  105.7230  140.7800 C.3    11  MOL11      -0.0305
   6661  C81      126.2980  106.3430  139.6280 C.3    11  MOL11       0.0050
   6662  S81      125.4820  107.8880  139.0250 S.3    11  MOL11      -0.0928
   6663  C81      126.8380  107.0630  142.6840 C.3    11  MOL11      -0.0403
   6664  C81      126.7390  107.7410  144.0770 C.3    11  MOL11      -0.0515
   6665  C81      126.8880  109.3110  144.1680 C.3    11  MOL11      -0.0429
   6666  C81      126.3320  110.7700  144.1110 C.3    11  MOL11       0.0450
   6667  C81      125.6490  111.4960  142.9800 C.2    11  MOL11       0.3074
   6668  O81      124.4250  111.9750  143.2750 O.3    11  MOL11      -0.4582
   6669  O81      126.2040  111.8220  141.9750 O.2    11  MOL11      -0.2508
   6670  S82      126.0650  109.0860  137.4050 S.3    11  MOL11      -0.0897
   6671  C82      123.2700  130.1150  144.6690 C.3    11  MOL11      -0.0559
   6672  C82      124.4740  129.2240  144.5360 C.3    11  MOL11      -0.0533
   6673  C82      124.0160  127.7800  144.6960 C.3    11  MOL11      -0.0531
   6674  C82      124.0350  127.0970  143.3290 C.3    11  MOL11      -0.0531
   6675  C82      123.5030  125.6480  143.1630 C.3    11  MOL11      -0.0531
   6676  C82      124.4970  125.0340  142.2250 C.3    11  MOL11      -0.0531
   6677  C82      124.8780  123.6270  141.8390 C.3    11  MOL11      -0.0531
   6678  C82      124.1260  122.3800  141.4910 C.3    11  MOL11      -0.0530
   6679  C82      124.4200  121.2570  142.4470 C.3    11  MOL11      -0.0500
   6680  C83      125.9070  120.9830  142.6890 C.3    11  MOL11      -0.0185
   6681  C83      126.8950  121.3860  141.6030 C.3    11  MOL11       0.0925
   6682  C83      123.5390  131.5560  144.4520 C.3    11  MOL11      -0.0653
   6683  C83      127.4720  119.5820  138.5220 C.3    11  MOL11       0.0537
   6684  C83      127.7260  120.6710  139.5080 C.2    11  MOL11       0.3099
   6685  O83      126.7530  120.5900  140.4380 O.3    11  MOL11      -0.4644
   6686  O83      128.6240  121.4860  139.5090 O.2    11  MOL11      -0.2505
   6687  C83      126.3070  118.6390  138.8300 C.3    11  MOL11      -0.0523
   6688  C83      128.6600  118.6640  138.3770 C.3    11  MOL11      -0.0394
   6689  C83      128.0610  119.1040  135.0420 C.3    11  MOL11      -0.0497
   6690  O84      122.4410   84.8090  148.1680 O.2    11  MOL11      -0.2510
   6691  O84      123.9100   86.4730  148.5240 O.3    11  MOL11      -0.4806
   6692  C84      122.6500   85.9590  148.3810 C.2    11  MOL11       0.3047
   6693  C84      121.6140   87.0760  148.4860 C.3    11  MOL11       0.0448
   6694  C84      120.1140   86.6020  148.4380 C.3    11  MOL11      -0.0430
   6695  C84      118.7470   87.4780  148.4140 C.3    11  MOL11      -0.0516
   6696  C84      117.3990   88.3940  148.4050 C.3    11  MOL11      -0.0411
   6697  S84      118.0100   93.6760  148.8790 S.3    11  MOL11      -0.0928
   6698  C84      116.5840   92.5500  149.0890 C.3    11  MOL11       0.0049
   6699  C84      117.2070   91.2720  148.4740 C.3    11  MOL11      -0.0313
   6700  C85      127.1590   94.8750  140.4830 C.2    11  MOL11       0.3129
   6701  C85      126.7350   95.1160  139.0560 C.3    11  MOL11       0.0622
   6702  C85      126.8860   96.5310  138.4300 C.3    11  MOL11      -0.0370
   6703  C85      127.1440   93.8930  138.3230 C.3    11  MOL11      -0.0497
   6704  O85      127.9020   94.0090  140.8770 O.2    11  MOL11      -0.2502
   6705  O85      126.4280   95.6990  141.2850 O.3    11  MOL11      -0.4605
   6706  C85      126.1740   95.1610  142.5700 C.3    11  MOL11       0.1290
   6707  C85      124.7560   94.9740  142.9370 C.3    11  MOL11       0.1341
   6708  C85      124.8620   94.2380  144.2530 C.3    11  MOL11      -0.0244
   6709  C85      124.3760   99.3760  146.6960 C.3    11  MOL11       0.0162
   6710  C86      124.5400   99.9680  148.0930 C.3    11  MOL11      -0.0305
   6711  C86      123.7880  101.2800  148.1680 C.3    11  MOL11       0.0050
   6712  S86      122.4180  101.4970  149.2780 S.3    11  MOL11      -0.0928
   6713  C86      125.7160   99.0140  146.1510 C.3    11  MOL11      -0.0403
   6714  C86      125.7590   97.9720  145.0460 C.3    11  MOL11      -0.0515
   6715  C86      125.0580   98.4930  143.7880 C.3    11  MOL11      -0.0429
   6716  C86      123.5540   98.2210  143.7440 C.3    11  MOL11       0.0450
   6717  C86      123.3770   96.7610  143.9390 C.2    11  MOL11       0.3074
   6718  O86      124.2620   96.2960  143.0470 O.3    11  MOL11      -0.4582
   6719  O86      122.6580   96.1250  144.6680 O.2    11  MOL11      -0.2508
   6720  S87      114.9550   89.6420  148.9140 S.3    11  MOL11      -0.1607
   6721  C87      116.7530   89.8150  148.8030 C.3    11  MOL11       0.0058
   6722  C87      114.5080   90.7610  150.2150 C.3    11  MOL11      -0.0178
   6723  C87      128.6790  103.9290  140.4560 C.2    11  MOL11       0.3344
   6724  C87      129.3700  104.9250  141.2820 C.2    11  MOL11       0.0264
   6725  C87      129.1270  104.9240  142.5980 C.2    11  MOL11      -0.0890
   6726  C87      130.2830  105.9190  140.6170 C.3    11  MOL11      -0.0335
   6727  O87      128.8200  103.9610  139.2540 O.2    11  MOL11      -0.2453
   6728  O87      127.8370  102.9930  141.0200 O.3    11  MOL11      -0.4577
   6729  C87      127.1270  102.1970  140.0590 C.3    11  MOL11       0.1293
   6730  C88      125.8130  101.6230  140.5490 C.3    11  MOL11       0.1341
   6731  C88      125.4770  100.0980  140.6230 C.3    11  MOL11      -0.0244
   6732  C88      121.4670  103.6530  147.4670 C.3    11  MOL11       0.0162
   6733  C88      120.4110  104.7900  147.5880 C.3    11  MOL11      -0.0305
   6734  C88      120.1540  106.0370  146.7660 C.3    11  MOL11       0.0050
   6735  S88      119.8890  106.0680  144.9760 S.3    11  MOL11      -0.0928
   6736  C88      122.1550  103.4990  146.0960 C.3    11  MOL11      -0.0403
   6737  C88      123.6710  103.5340  145.9440 C.3    11  MOL11      -0.0515
   6738  C88      124.1210  102.4950  144.9270 C.3    11  MOL11      -0.0429
   6739  C88      123.9790  103.0140  143.5210 C.3    11  MOL11       0.0450
   6740  C89      124.3760  101.9250  142.5670 C.2    11  MOL11       0.3074
   6741  O89      125.3450  102.3750  141.7110 O.3    11  MOL11      -0.4582
   6742  O89      123.8670  100.8380  142.5840 O.2    11  MOL11      -0.2508
   6743  S89      122.5010  103.4910  148.9550 S.3    11  MOL11      -0.0897
   6744  C89      124.6860   86.7360  144.5520 C.2    11  MOL11       0.3344
   6745  C89      123.7710   85.6160  144.3880 C.2    11  MOL11       0.0264
   6746  C89      122.8250   85.5880  145.3180 C.2    11  MOL11      -0.0890
   6747  C89      123.8640   84.6160  143.2870 C.3    11  MOL11      -0.0335
   6748  O89      125.7090   86.8370  143.9100 O.2    11  MOL11      -0.2453
   6749  O89      124.3260   87.7190  145.4550 O.3    11  MOL11      -0.4577
   6750  C90      124.4820   89.0640  145.0020 C.3    11  MOL11       0.1293
   6751  C90      124.8760   89.9060  146.1620 C.3    11  MOL11       0.1341
   6752  C90      125.9900   90.9720  145.9670 C.3    11  MOL11      -0.0244
   6753  S90      118.0490   95.4810  149.8790 S.3    11  MOL11      -0.0897
   6754  C90      119.4650   95.9410  148.8380 C.3    11  MOL11       0.0162
   6755  C90      119.7860   97.4090  148.5720 C.3    11  MOL11      -0.0305
   6756  C90      120.8500   97.4020  147.4970 C.3    11  MOL11       0.0050
   6757  S90      121.6170   98.9840  147.1690 S.3    11  MOL11      -0.0928
   6758  C90      120.7010   95.1610  149.2600 C.3    11  MOL11      -0.0403
   6759  C90      121.0640   94.1560  148.1580 C.3    11  MOL11      -0.0515
   6760  C91      122.5060   93.7080  147.9910 C.3    11  MOL11      -0.0429
   6761  C91      122.7210   92.2090  147.7950 C.3    11  MOL11       0.0450
   6762  C91      123.3640   91.6080  146.5740 C.2    11  MOL11       0.3074
   6763  O91      123.8180   90.4030  146.9850 O.3    11  MOL11      -0.4582
   6764  O91      123.5200   92.0060  145.4550 O.2    11  MOL11      -0.2508
   6765  S91      123.3120   97.9700  146.7470 S.3    11  MOL11      -0.0897
   6766  C91      133.5080   93.2410  126.1760 C.3    11  MOL11      -0.0559
   6767  C91      132.7020   94.5210  126.2420 C.3    11  MOL11      -0.0533
   6768  C91      132.1610   94.5430  127.6750 C.3    11  MOL11      -0.0531
   6769  C91      130.9710   95.4210  127.7360 C.3    11  MOL11      -0.0531
   6770  C92      130.4200   95.8610  129.0530 C.3    11  MOL11      -0.0531
   6771  C92      129.4020   96.9370  128.6740 C.3    11  MOL11      -0.0531
   6772  C92      129.0580   98.0140  129.6910 C.3    11  MOL11      -0.0531
   6773  C92      129.4700   97.8680  131.1590 C.3    11  MOL11      -0.0530
   6774  C92      129.8440   99.1650  131.8150 C.3    11  MOL11      -0.0500
   6775  C92      129.1450   99.3050  133.1290 C.3    11  MOL11      -0.0185
   6776  C92      129.8360   99.9650  134.2900 C.3    11  MOL11       0.0925
   6777  C92      134.7590   92.9130  125.4090 C.3    11  MOL11      -0.0653
   6778  C92      129.2270   97.3460  136.7310 C.3    11  MOL11       0.0537
   6779  C92      129.3370   98.8020  136.4230 C.2    11  MOL11       0.3099
   6780  O93      129.8880   98.8870  135.2100 O.3    11  MOL11      -0.4644
   6781  O93      129.0160   99.7180  137.1290 O.2    11  MOL11      -0.2505
   6782  C93      129.9390   96.5200  135.6270 C.3    11  MOL11      -0.0523
   6783  C93      127.7320   97.0170  137.2050 C.3    11  MOL11      -0.0394
   6784  C93      125.2340   95.0300  139.1900 C.3    11  MOL11      -0.0497
   6785 5H93      135.3190  106.1700  126.4230 H      11  MOL11       0.2951
   6786 6H93      133.6220  105.7170  128.3230 H      11  MOL11       0.0377
   6787 7H93      134.5100  106.9880  127.5710 H      11  MOL11       0.0377
   6788 8H93      134.6700  107.1360  130.4850 H      11  MOL11       0.0270
   6789 9H93      133.0360  106.8630  130.0800 H      11  MOL11       0.0270
   6790 0H94      132.4190  108.7840  129.5800 H      11  MOL11       0.0266
   6791 1H94      133.7300  109.6090  129.0150 H      11  MOL11       0.0266
   6792 2H94      133.3950  108.5150  131.8610 H      11  MOL11       0.0276
   6793 3H94      132.3610  109.8050  131.2010 H      11  MOL11       0.0276
   6794 4H94      134.8880  113.9900  132.6040 H      11  MOL11       0.0385
   6795 5H94      135.5710  112.5850  133.2310 H      11  MOL11       0.0385
   6796 6H94      133.2780  112.0690  131.0480 H      11  MOL11       0.0284
   6797 7H94      133.1430  112.7500  132.5980 H      11  MOL11       0.0284
   6798 8H94      141.6570  113.0230  118.0000 H      11  MOL11       0.0276
   6799 9H94      140.8790  114.4120  118.6170 H      11  MOL11       0.0276
   6800 0H95      140.2100  111.3950  115.8660 H      11  MOL11       0.0240
   6801 1H95      141.4130  112.5520  115.9010 H      11  MOL11       0.0240
   6802 2H95      139.9270  112.9420  115.1420 H      11  MOL11       0.0240
   6803 3H95      136.1560  110.6190  118.4030 H      11  MOL11       0.0735
   6804 4H95      137.2320  110.5190  119.7510 H      11  MOL11       0.0735
   6805 5H95      135.1470  111.0350  120.3720 H      11  MOL11       0.0765
   6806 6H95      135.6960  112.5140  121.9530 H      11  MOL11       0.0266
   6807 7H95      137.2230  112.9210  121.3500 H      11  MOL11       0.0266
   6808 8H95      136.9550  111.2220  121.5470 H      11  MOL11       0.0266
   6809 9H95      130.7250  117.2610  125.6360 H      11  MOL11       0.0421
   6810 0H96      133.2440  116.4950  126.8900 H      11  MOL11       0.0284
   6811 1H96      131.8400  117.3810  127.3040 H      11  MOL11       0.0284
   6812 2H96      134.7130  118.2400  126.8870 H      11  MOL11       0.0385
   6813 3H96      133.6270  118.1100  128.1490 H      11  MOL11       0.0385
   6814 4H96      131.0750  115.4000  124.0290 H      11  MOL11       0.0276
   6815 5H96      130.1090  116.7230  123.9230 H      11  MOL11       0.0276
   6816 6H96      130.7880  117.1800  121.7690 H      11  MOL11       0.0266
   6817 7H96      130.1080  115.6490  122.2470 H      11  MOL11       0.0266
   6818 8H96      132.0590  116.5510  120.2830 H      11  MOL11       0.0270
   6819 9H96      130.6880  115.5260  120.2560 H      11  MOL11       0.0270
   6820 0H97      132.5610  114.9260  119.0020 H      11  MOL11       0.0377
   6821 1H97      131.5760  113.8820  119.9060 H      11  MOL11       0.0377
   6822 2H97      132.6060  110.8210  132.8860 H      11  MOL11       0.0421
   6823 3H97      140.8180  123.3650  116.5870 H      11  MOL11       0.0540
   6824 4H97      140.6630  122.6000  118.2370 H      11  MOL11       0.0540
   6825 5H97      142.2900  122.1500  114.9330 H      11  MOL11       0.0280
   6826 6H97      140.6470  121.7650  114.6820 H      11  MOL11       0.0280
   6827 7H97      141.7710  120.4090  114.7390 H      11  MOL11       0.0280
   6828 8H97      140.9990  118.0580  119.6360 H      11  MOL11       0.0735
   6829 9H97      141.2410  119.4560  120.6910 H      11  MOL11       0.0735
   6830 0H98      138.5960  118.1520  120.1410 H      11  MOL11       0.0765
   6831 1H98      140.4350  117.2480  121.3400 H      11  MOL11       0.0266
   6832 2H98      139.0730  117.3780  122.3750 H      11  MOL11       0.0266
   6833 3H98      140.4070  118.5210  122.5380 H      11  MOL11       0.0266
   6834 4H98      134.3360  122.5830  126.5400 H      11  MOL11       0.0421
   6835 5H98      134.3530  124.3450  128.6910 H      11  MOL11       0.0284
   6836 6H98      133.1030  123.6710  127.6420 H      11  MOL11       0.0284
   6837 7H98      134.9940  124.7650  125.8620 H      11  MOL11       0.0377
   6838 8H98      134.9950  125.8470  127.2970 H      11  MOL11       0.0377
   6839 9H98      136.5960  124.4970  126.8140 H      11  MOL11       0.0276
   6840 0H99      137.3940  123.0810  127.2110 H      11  MOL11       0.0276
   6841 1H99      137.9520  122.4760  125.4290 H      11  MOL11       0.0266
   6842 2H99      138.0690  124.1640  125.2340 H      11  MOL11       0.0266
   6843 3H99      138.7310  122.7100  123.7210 H      11  MOL11       0.0270
   6844 4H99      138.0440  124.0210  123.3170 H      11  MOL11       0.0270
   6845 5H99      138.4120  123.0100  121.4570 H      11  MOL11       0.0377
   6846 6H99      136.7300  122.9010  121.4370 H      11  MOL11       0.0377
   6847 7H99      133.7420  127.6630  124.3780 H      11  MOL11       0.0340
   6848 8H99      133.1680  126.3440  123.4660 H      11  MOL11       0.0340
   6849 9H99      134.7390  126.2030  124.1630 H      11  MOL11       0.0340
   6850  H10      131.7400  102.3090  123.5300 H      11  MOL11       0.0540
   6851  H10      132.3530  104.0340  123.4740 H      11  MOL11       0.0540
   6852  H10      134.4950  100.8260  124.8800 H      11  MOL11       0.0280
   6853  H10      135.0900  100.8710  123.2200 H      11  MOL11       0.0280
   6854  H10      133.3980  100.5130  123.4920 H      11  MOL11       0.0280
   6855  H10      135.5720  104.7870  121.8420 H      11  MOL11       0.0735
   6856  H10      134.7190  106.2150  122.2530 H      11  MOL11       0.0735
   6857  H10      137.2810  104.9990  123.2090 H      11  MOL11       0.0765
   6858  H10      138.3130  107.2030  122.3070 H      11  MOL11       0.0266
   6859  H10      136.7220  107.5080  121.6240 H      11  MOL11       0.0266
   6860  H10      137.5950  106.0280  121.2330 H      11  MOL11       0.0266
   6861  H10      136.7270  111.1580  128.4740 H      11  MOL11       0.0421
   6862  H10      135.3760  111.5220  126.8970 H      11  MOL11       0.0284
   6863  H10      134.7610  111.2450  128.4800 H      11  MOL11       0.0284
   6864  H10      133.0530  112.4170  128.3480 H      11  MOL11       0.0385
   6865  H10      133.1210  111.8870  126.9340 H      11  MOL11       0.0385
   6866  H10      138.6190  111.7690  127.8740 H      11  MOL11       0.0276
   6867  H10      138.1450  112.8780  126.7610 H      11  MOL11       0.0276
   6868  H10      138.2250  111.2390  125.4420 H      11  MOL11       0.0266
   6869  H10      136.7060  110.6430  126.0080 H      11  MOL11       0.0266
   6870  H10      139.0420  109.1090  126.9700 H      11  MOL11       0.0270
   6871  H10      138.9490  109.3800  125.3120 H      11  MOL11       0.0270
   6872  H10      137.2050  107.4350  126.8550 H      11  MOL11       0.0377
   6873  H10      138.3670  107.2720  125.7810 H      11  MOL11       0.0377
   6874  H10      150.7250  119.1470  106.2440 H      11  MOL11       0.0263
   6875  H10      149.8440  119.7840  104.9190 H      11  MOL11       0.0263
   6876  H10      148.9520  118.0190  107.1370 H      11  MOL11       0.0265
   6877  H10      147.8670  118.3640  105.8190 H      11  MOL11       0.0265
   6878  H10      147.6570  120.7090  106.6910 H      11  MOL11       0.0265
   6879  H10      148.6970  120.3230  108.0390 H      11  MOL11       0.0265
   6880  H10      147.2930  118.7930  108.9380 H      11  MOL11       0.0265
   6881  H10      146.5850  118.3160  107.4120 H      11  MOL11       0.0265
   6882  H10      145.1130  120.5300  107.7720 H      11  MOL11       0.0265
   6883  H10      145.5850  120.2930  109.4090 H      11  MOL11       0.0265
   6884  H10      144.8400  117.6680  108.1340 H      11  MOL11       0.0265
   6885  H10      143.6220  118.8550  107.7980 H      11  MOL11       0.0265
   6886  H10      142.8100  118.8470  109.8490 H      11  MOL11       0.0265
   6887  H10      144.3900  119.1670  110.5530 H      11  MOL11       0.0265
   6888  H10      144.8310  116.7660  110.8080 H      11  MOL11       0.0265
   6889  H10      143.3090  116.3560  110.0580 H      11  MOL11       0.0265
   6890  H10      142.1050  117.3270  111.8150 H      11  MOL11       0.0266
   6891  H10      143.3040  118.5330  112.1040 H      11  MOL11       0.0266
   6892  H10      144.4460  117.3040  113.6720 H      11  MOL11       0.0298
   6893  H10      143.5010  115.8260  113.4250 H      11  MOL11       0.0298
   6894  H10      141.5020  117.2690  113.6790 H      11  MOL11       0.0697
   6895  H10      142.5190  118.4190  114.5520 H      11  MOL11       0.0697
   6896  H10      149.2030  117.2380  104.3840 H      11  MOL11       0.0230
   6897  H10      150.4050  116.8160  105.6020 H      11  MOL11       0.0230
   6898  H10      150.8840  117.6050  104.1250 H      11  MOL11       0.0230
   6899  H10      142.0710  116.6010  117.9970 H      11  MOL11       0.0411
   6900  H10      144.4290  114.9600  118.3390 H      11  MOL11       0.0238
   6901  H10      142.9840  114.1620  118.8820 H      11  MOL11       0.0238
   6902  H10      143.3340  115.6950  119.5090 H      11  MOL11       0.0238
   6903  H10      141.9340  114.4190  115.9060 H      11  MOL11       0.0273
   6904  H10      140.7120  115.5020  116.4130 H      11  MOL11       0.0273
   6905  H10      139.0470  114.8010  116.4490 H      11  MOL11       0.0240
   6906  H10      137.9070  114.0790  117.5440 H      11  MOL11       0.0240
   6907  H10      138.1480  113.3770  115.9640 H      11  MOL11       0.0240
   6908  H10      125.7900  111.7010  149.5800 H      11  MOL11       0.2951
   6909  H10      124.8080  110.3930  148.7700 H      11  MOL11       0.0377
   6910  H10      124.3160  111.4040  147.4000 H      11  MOL11       0.0377
   6911  H10      121.8510  110.6960  148.7670 H      11  MOL11       0.0270
   6912  H10      122.8620  109.2600  148.7920 H      11  MOL11       0.0270
   6913  H10      123.4030  109.7500  146.3540 H      11  MOL11       0.0266
   6914  H10      122.3250  110.9520  146.4160 H      11  MOL11       0.0266
   6915  H10      120.6020  108.7630  146.5920 H      11  MOL11       0.0276
   6916  H10      122.1800  107.9890  146.6820 H      11  MOL11       0.0276
   6917  H10      121.9570  109.0790  142.3360 H      11  MOL11       0.0385
   6918  H10      123.2820  110.1990  142.4420 H      11  MOL11       0.0385
   6919  H10      123.1100  110.2130  144.5250 H      11  MOL11       0.0284
   6920  H10      123.8580  108.6280  144.5990 H      11  MOL11       0.0284
   6921  H10      128.9070  116.7540  137.4680 H      11  MOL11       0.0276
   6922  H10      127.3520  117.4890  137.1410 H      11  MOL11       0.0276
   6923  H10      130.7150  117.9350  136.9160 H      11  MOL11       0.0240
   6924  H10      130.3760  119.6310  136.6490 H      11  MOL11       0.0240
   6925  H10      130.9390  118.6460  135.3010 H      11  MOL11       0.0240
   6926  H10      127.0060  116.9050  133.5470 H      11  MOL11       0.0735
   6927  H10      126.2800  116.6350  135.0850 H      11  MOL11       0.0735
   6928  H10      125.1200  115.5690  133.3990 H      11  MOL11       0.0765
   6929  H10      125.1590  113.3860  132.8270 H      11  MOL11       0.0266
   6930  H10      126.6600  113.0140  133.6630 H      11  MOL11       0.0266
   6931  H10      126.6890  113.8430  132.1140 H      11  MOL11       0.0266
   6932  H10      128.0820  109.6320  136.5630 H      11  MOL11       0.0421
   6933  H10      127.0310  108.5210  133.8820 H      11  MOL11       0.0284
   6934  H10      128.1770  107.7310  135.1550 H      11  MOL11       0.0284
   6935  H10      128.1180  107.8960  132.4580 H      11  MOL11       0.0385
   6936  H10      128.2620  106.7260  133.5610 H      11  MOL11       0.0385
   6937  H10      125.6150  110.5420  135.3530 H      11  MOL11       0.0276
   6938  H10      127.0310  111.0340  134.5770 H      11  MOL11       0.0276
   6939  H10      127.6110  112.4890  136.6660 H      11  MOL11       0.0266
   6940  H10      126.9410  111.3550  137.6270 H      11  MOL11       0.0266
   6941  H10      126.0980  113.7450  137.4340 H      11  MOL11       0.0270
   6942  H10      125.2480  112.4650  138.1080 H      11  MOL11       0.0270
   6943  H10      123.5570  113.5520  137.1410 H      11  MOL11       0.0377
   6944  H10      123.8080  112.2540  136.0020 H      11  MOL11       0.0377
   6945  H10      120.8890  109.0380  144.2540 H      11  MOL11       0.0421
   6946  H10      135.1070  100.2500  127.6630 H      11  MOL11       0.0540
   6947  H10      136.4010   99.0380  127.5060 H      11  MOL11       0.0540
   6948  H10      137.7320   98.6980  130.2400 H      11  MOL11       0.0280
   6949  H10      136.1890   97.7940  130.0980 H      11  MOL11       0.0280
   6950  H11      136.4210   98.8650  131.4420 H      11  MOL11       0.0280
   6951  H11      133.1200  102.7790  129.4060 H      11  MOL11       0.0735
   6952  H11      133.3300  101.9850  130.9560 H      11  MOL11       0.0735
   6953  H11      134.5590  104.4610  129.9350 H      11  MOL11       0.0765
   6954  H11      132.5400  104.8590  129.8360 H      11  MOL11       0.0266
   6955  H11      132.6590  105.4870  131.4640 H      11  MOL11       0.0266
   6956  H11      131.9500  103.9640  131.1660 H      11  MOL11       0.0266
   6957  H11      133.7910  108.4020  134.1120 H      11  MOL11       0.0421
   6958  H11      132.8520  108.2630  136.7970 H      11  MOL11       0.0284
   6959  H11      132.5970  109.8370  136.1360 H      11  MOL11       0.0284
   6960  H11      135.3240  108.8050  135.8960 H      11  MOL11       0.0385
   6961  H11      134.6640  109.3390  137.5090 H      11  MOL11       0.0385
   6962  H11      132.5860  106.2070  134.0470 H      11  MOL11       0.0276
   6963  H11      132.6510  106.2060  135.6970 H      11  MOL11       0.0276
   6964  H11      134.6980  106.7450  136.1170 H      11  MOL11       0.0266
   6965  H11      135.2190  107.2940  134.6550 H      11  MOL11       0.0266
   6966  H11      135.2610  104.4390  135.6960 H      11  MOL11       0.0270
   6967  H11      136.6010  105.4590  135.6430 H      11  MOL11       0.0270
   6968  H11      136.9390  103.4710  134.5660 H      11  MOL11       0.0377
   6969  H11      137.4460  104.7950  133.5910 H      11  MOL11       0.0377
   6970  H11      118.8280  110.4950  145.3520 H      11  MOL11       0.0540
   6971  H11      119.8800  110.7360  143.8180 H      11  MOL11       0.0540
   6972  H11      121.2990  112.2860  147.4830 H      11  MOL11       0.0280
   6973  H11      120.1710  110.9440  147.4380 H      11  MOL11       0.0280
   6974  H11      119.5720  112.5850  147.1940 H      11  MOL11       0.0280
   6975  H11      121.8550  113.3550  141.7740 H      11  MOL11       0.0735
   6976  H11      122.4640  113.8820  143.2040 H      11  MOL11       0.0735
   6977  H11      123.5880  111.7250  141.4690 H      11  MOL11       0.0765
   6978  H11      123.8130  113.3460  140.1530 H      11  MOL11       0.0266
   6979  H11      125.2920  113.5510  140.9620 H      11  MOL11       0.0266
   6980  H11      123.8730  114.6180  141.3440 H      11  MOL11       0.0266
   6981  H11      126.1200  105.0030  142.6990 H      11  MOL11       0.0421
   6982  H11      125.6070  104.6310  140.6430 H      11  MOL11       0.0284
   6983  H11      124.4760  105.9180  140.5290 H      11  MOL11       0.0284
   6984  H11      126.1680  105.5370  138.8940 H      11  MOL11       0.0385
   6985  H11      127.3530  106.4500  139.8980 H      11  MOL11       0.0385
   6986  H11      126.5320  107.8130  142.0110 H      11  MOL11       0.0276
   6987  H11      127.8690  106.8590  142.3880 H      11  MOL11       0.0276
   6988  H11      127.6530  107.4410  144.6240 H      11  MOL11       0.0266
   6989  H11      125.9170  107.2780  144.6240 H      11  MOL11       0.0266
   6990  H11      127.5120  109.4240  143.3000 H      11  MOL11       0.0270
   6991  H11      127.6080  109.4500  144.9830 H      11  MOL11       0.0270
   6992  H11      127.3200  111.2310  144.0050 H      11  MOL11       0.0377
   6993  H11      126.0010  111.2710  145.0220 H      11  MOL11       0.0377
   6994  H11      122.7580  129.9670  145.6240 H      11  MOL11       0.0263
   6995  H11      122.5800  129.8810  143.8750 H      11  MOL11       0.0263
   6996  H11      125.2470  129.5010  145.2630 H      11  MOL11       0.0265
   6997  H11      124.9020  129.3960  143.5340 H      11  MOL11       0.0265
   6998  H11      123.0230  127.7960  145.1130 H      11  MOL11       0.0265
   6999  H11      124.5360  127.2400  145.4910 H      11  MOL11       0.0265
   7000  H11      125.0720  127.1640  142.9850 H      11  MOL11       0.0265
   7001  H11      123.5400  127.7590  142.6170 H      11  MOL11       0.0265
   7002  H11      122.5570  125.5670  142.6640 H      11  MOL11       0.0265
   7003  H11      123.2570  125.1690  144.1090 H      11  MOL11       0.0265
   7004  H11      125.4510  125.3190  142.6470 H      11  MOL11       0.0265
   7005  H11      124.3990  125.6300  141.3080 H      11  MOL11       0.0265
   7006  H11      125.4820  123.2510  142.6520 H      11  MOL11       0.0265
   7007  H11      125.6130  123.8420  141.0550 H      11  MOL11       0.0265
   7008  H11      124.6350  121.9490  140.6640 H      11  MOL11       0.0265
   7009  H11      123.1070  122.4710  141.1540 H      11  MOL11       0.0265
   7010  H11      123.9560  120.3780  142.0170 H      11  MOL11       0.0266
   7011  H11      123.9730  121.5160  143.3900 H      11  MOL11       0.0266
   7012  H11      126.0860  119.9200  142.9020 H      11  MOL11       0.0298
   7013  H11      126.1570  121.4870  143.6300 H      11  MOL11       0.0298
   7014  H11      127.8600  121.2130  142.0350 H      11  MOL11       0.0697
   7015  H11      126.9310  122.4370  141.3150 H      11  MOL11       0.0697
   7016  H11      122.6370  132.0840  144.7620 H      11  MOL11       0.0230
   7017  H11      123.7060  131.7280  143.3820 H      11  MOL11       0.0230
   7018  H11      124.4060  131.8830  145.0260 H      11  MOL11       0.0230
   7019  H11      127.3000  120.1140  137.5810 H      11  MOL11       0.0411
   7020  H11      126.6660  117.6330  139.0880 H      11  MOL11       0.0238
   7021  H11      125.6870  118.4940  137.9650 H      11  MOL11       0.0238
   7022  H11      125.6320  119.0020  139.5930 H      11  MOL11       0.0238
   7023  H11      128.7620  118.0770  139.3090 H      11  MOL11       0.0273
   7024  H11      129.5980  119.2180  138.2880 H      11  MOL11       0.0273
   7025  H11      127.6780  119.8800  135.7040 H      11  MOL11       0.0240
   7026  H11      127.2340  118.6400  134.5010 H      11  MOL11       0.0240
   7027  H11      128.6290  119.6270  134.2720 H      11  MOL11       0.0240
   7028  H11      123.9140   87.4290  148.6000 H      11  MOL11       0.2951
   7029  H11      121.9160   87.7820  147.6930 H      11  MOL11       0.0377
   7030  H11      121.8000   87.5890  149.4360 H      11  MOL11       0.0377
   7031  H11      120.0770   85.9220  149.2880 H      11  MOL11       0.0270
   7032  H11      119.9230   85.9070  147.6480 H      11  MOL11       0.0270
   7033  H11      119.1180   88.0770  147.6010 H      11  MOL11       0.0266
   7034  H11      118.9470   87.7280  149.4240 H      11  MOL11       0.0266
   7035  H11      117.0010   87.9260  149.2740 H      11  MOL11       0.0276
   7036  H11      116.8910   88.0040  147.5250 H      11  MOL11       0.0276
   7037  H11      115.6930   92.8960  148.5580 H      11  MOL11       0.0385
   7038  H11      116.3320   92.4160  150.1410 H      11  MOL11       0.0385
   7039  H11      118.1540   91.2560  148.9990 H      11  MOL11       0.0284
   7040  H11      117.4730   91.4670  147.4280 H      11  MOL11       0.0284
   7041  H11      126.8360   97.2330  139.2760 H      11  MOL11       0.0276
   7042  H11      125.9010   96.7270  137.9520 H      11  MOL11       0.0276
   7043  H11      128.1540   93.6330  138.5760 H      11  MOL11       0.0240
   7044  H11      127.0830   94.0100  137.2550 H      11  MOL11       0.0240
   7045  H11      126.5200   93.0860  138.7140 H      11  MOL11       0.0240
   7046  H11      126.7230   94.2260  142.7270 H      11  MOL11       0.0735
   7047  H11      126.5170   95.8730  143.3270 H      11  MOL11       0.0735
   7048  H11      124.1880   94.4680  142.1530 H      11  MOL11       0.0765
   7049  H11      123.9830   94.3130  144.8920 H      11  MOL11       0.0266
   7050  H12      125.7040   94.6690  144.8020 H      11  MOL11       0.0266
   7051  H12      125.0900   93.1840  144.0910 H      11  MOL11       0.0266
   7052  H12      123.9530  100.0870  145.9850 H      11  MOL11       0.0421
   7053  H12      125.6030  100.2180  148.2430 H      11  MOL11       0.0284
   7054  H12      124.2760   99.2500  148.8810 H      11  MOL11       0.0284
   7055  H12      123.3960  101.5000  147.1730 H      11  MOL11       0.0385
   7056  H12      124.5210  102.0510  148.4160 H      11  MOL11       0.0385
   7057  H12      126.3110   98.6680  146.9910 H      11  MOL11       0.0276
   7058  H12      126.1480   99.9660  145.8210 H      11  MOL11       0.0276
   7059  H12      125.3420   97.0110  145.3680 H      11  MOL11       0.0266
   7060  H12      126.8120   97.7300  144.8880 H      11  MOL11       0.0266
   7061  H12      125.4990   98.0620  142.8720 H      11  MOL11       0.0270
   7062  H12      125.2330   99.5710  143.7230 H      11  MOL11       0.0270
   7063  H12      123.1920   98.4460  142.7300 H      11  MOL11       0.0377
   7064  H12      122.9710   98.8170  144.4390 H      11  MOL11       0.0377
   7065  H12      116.9310   89.8820  149.8720 H      11  MOL11       0.0412
   7066  H12      113.5140   90.4210  150.5040 H      11  MOL11       0.0341
   7067  H12      114.4370   91.7960  149.8660 H      11  MOL11       0.0341
   7068  H12      115.1930   90.6780  151.0600 H      11  MOL11       0.0341
   7069  H12      128.4720  104.1860  143.0490 H      11  MOL11       0.0540
   7070  H12      129.5430  105.6650  143.2820 H      11  MOL11       0.0540
   7071  H12      131.1930  106.0640  141.2090 H      11  MOL11       0.0280
   7072  H12      129.7610  106.8760  140.5420 H      11  MOL11       0.0280
   7073  H12      130.5880  105.6140  139.6060 H      11  MOL11       0.0280
   7074  H12      126.8320  102.8900  139.2540 H      11  MOL11       0.0735
   7075  H12      127.8230  101.4980  139.5710 H      11  MOL11       0.0735
   7076  H12      125.2470  101.9390  139.6750 H      11  MOL11       0.0765
   7077  H12      124.4110   99.8390  140.6200 H      11  MOL11       0.0266
   7078  H12      125.7770   99.7090  141.5920 H      11  MOL11       0.0266
   7079  H12      125.8780   99.5200  139.7780 H      11  MOL11       0.0266
   7080  H12      120.8490  102.7710  147.6600 H      11  MOL11       0.0421
   7081  H12      120.3940  105.1780  148.6110 H      11  MOL11       0.0284
   7082  H12      119.4690  104.2870  147.4760 H      11  MOL11       0.0284
   7083  H12      120.9390  106.7340  146.9680 H      11  MOL11       0.0385
   7084  H12      119.2600  106.5020  147.2120 H      11  MOL11       0.0385
   7085  H12      121.7360  104.2360  145.4010 H      11  MOL11       0.0276
   7086  H12      121.8550  102.5470  145.6600 H      11  MOL11       0.0276
   7087  H12      124.2130  103.3980  146.8810 H      11  MOL11       0.0266
   7088  H12      123.9110  104.5220  145.5630 H      11  MOL11       0.0266
   7089  H12      123.4790  101.6040  144.9950 H      11  MOL11       0.0270
   7090  H12      125.1430  102.1490  145.1020 H      11  MOL11       0.0270
   7091  H12      124.5540  103.8990  143.2800 H      11  MOL11       0.0377
   7092  H12      122.9130  103.2400  143.3760 H      11  MOL11       0.0377
   7093  H12      122.0340   84.8730  145.3290 H      11  MOL11       0.0540
   7094  H12      122.8180   86.3220  146.1100 H      11  MOL11       0.0540
   7095  H12      124.9070   84.3760  143.1020 H      11  MOL11       0.0280
   7096  H12      123.4000   84.9710  142.3640 H      11  MOL11       0.0280
   7097  H12      123.3290   83.7060  143.5470 H      11  MOL11       0.0280
   7098  H12      125.2710   89.0880  144.2460 H      11  MOL11       0.0735
   7099  H12      123.5390   89.4050  144.5540 H      11  MOL11       0.0735
   7100  H12      125.2130   89.1120  146.8100 H      11  MOL11       0.0765
   7101  H12      126.2860   91.3630  146.9520 H      11  MOL11       0.0266
   7102  H12      125.7050   91.8520  145.3860 H      11  MOL11       0.0266
   7103  H12      126.8770   90.5820  145.4530 H      11  MOL11       0.0266
   7104  H12      119.2360   95.5320  147.8640 H      11  MOL11       0.0421
   7105  H12      120.3080   97.8060  149.4190 H      11  MOL11       0.0284
   7106  H12      118.9210   98.0580  148.3750 H      11  MOL11       0.0284
   7107  H12      120.5430   96.9470  146.5580 H      11  MOL11       0.0385
   7108  H12      121.6400   96.7570  147.8840 H      11  MOL11       0.0385
   7109  H12      120.4780   94.7040  150.2180 H      11  MOL11       0.0276
   7110  H12      121.5380   95.8070  149.4900 H      11  MOL11       0.0276
   7111  H12      120.8010   94.5990  147.1880 H      11  MOL11       0.0266
   7112  H12      120.4200   93.2930  148.3070 H      11  MOL11       0.0266
   7113  H12      122.9690   93.8950  148.9500 H      11  MOL11       0.0270
   7114  H12      122.9600   94.3560  147.2260 H      11  MOL11       0.0270
   7115  H12      121.7820   91.6820  147.9040 H      11  MOL11       0.0377
   7116  H12      123.3670   91.8190  148.5940 H      11  MOL11       0.0377
   7117  H12      132.8350   92.4220  125.9250 H      11  MOL11       0.0263
   7118  H12      133.8120   93.1110  127.2060 H      11  MOL11       0.0263
   7119  H12      131.8520   94.5240  125.5400 H      11  MOL11       0.0265
   7120  H12      133.2910   95.4210  126.0510 H      11  MOL11       0.0265
   7121  H12      132.9290   94.8390  128.3920 H      11  MOL11       0.0265
   7122  H12      131.8310   93.5570  127.9730 H      11  MOL11       0.0265
   7123  H12      130.1890   94.9200  127.1530 H      11  MOL11       0.0265
   7124  H12      131.3020   96.3450  127.2730 H      11  MOL11       0.0265
   7125  H12      131.2300   96.2560  129.6660 H      11  MOL11       0.0265
   7126  H12      130.0190   95.0220  129.6270 H      11  MOL11       0.0265
   7127  H12      128.4700   96.4910  128.2970 H      11  MOL11       0.0265
   7128  H12      129.7730   97.4890  127.7960 H      11  MOL11       0.0265
   7129  H12      127.9710   98.1080  129.6350 H      11  MOL11       0.0265
   7130  H12      129.4550   98.9510  129.2960 H      11  MOL11       0.0265
   7131  H12      130.2220   97.0940  131.3650 H      11  MOL11       0.0265
   7132  H12      128.5980   97.6120  131.7340 H      11  MOL11       0.0265
   7133  H12      129.4810   99.9790  131.1950 H      11  MOL11       0.0266
   7134  H12      130.9260   99.1340  131.9540 H      11  MOL11       0.0266
   7135  H12      129.0640   98.2720  133.4550 H      11  MOL11       0.0298
   7136  H12      128.1310   99.7050  132.9630 H      11  MOL11       0.0298
   7137  H12      129.2480  100.8320  134.5760 H      11  MOL11       0.0697
   7138  H12      130.8700  100.2640  134.1480 H      11  MOL11       0.0697
   7139  H12      134.5170   92.5800  124.4110 H      11  MOL11       0.0230
   7140  H12      135.1560   92.0280  125.9180 H      11  MOL11       0.0230
   7141  H12      135.5320   93.6780  125.3580 H      11  MOL11       0.0230
   7142  H12      129.9500   97.3670  137.5170 H      11  MOL11       0.0411
   7143  H12      129.9610   95.4650  135.8800 H      11  MOL11       0.0238
   7144  H12      130.9790   96.8060  135.5010 H      11  MOL11       0.0238
   7145  H12      129.5790   96.7020  134.6180 H      11  MOL11       0.0238
   7146  H12      127.2270   96.4420  136.4300 H      11  MOL11       0.0273
   7147  H12      127.3120   98.0240  137.2160 H      11  MOL11       0.0273
   7148  H12      124.9040   95.8860  139.7740 H      11  MOL11       0.0240
   7149  H12      124.9050   94.1220  139.6990 H      11  MOL11       0.0240
   7150  H13      124.8180   95.0650  138.1820 H      11  MOL11       0.0240
   7151  O65       95.4980  115.6140  104.9390 O.2    12  MOL12      -0.2510
   7152  O65       97.0160  115.9610  106.4610 O.3    12  MOL12      -0.4806
   7153  C65       96.0520  115.1770  105.9120 C.2    12  MOL12       0.3047
   7154  C65       95.9300  113.8810  106.8380 C.3    12  MOL12       0.0448
   7155  C65       95.6390  112.3220  106.6380 C.3    12  MOL12      -0.0430
   7156  C65       96.3770  110.9850  107.2460 C.3    12  MOL12      -0.0515
   7157  C65       95.9070  109.5850  106.5080 C.3    12  MOL12      -0.0403
   7158  S65      100.5380  107.5360  104.3740 S.3    12  MOL12      -0.0928
   7159  C65       98.7370  106.9530  105.1760 C.3    12  MOL12       0.0050
   7160  C66       97.5780  107.3460  106.2970 C.3    12  MOL12      -0.0305
   7161  C66      107.3380  117.7750  110.2640 C.2    12  MOL12       0.3129
   7162  C66      108.9170  117.6510  110.5170 C.3    12  MOL12       0.0622
   7163  C66      109.8780  117.1070  109.4440 C.3    12  MOL12      -0.0370
   7164  C66      109.5600  118.9990  110.6840 C.3    12  MOL12      -0.0497
   7165  O66      106.7950  118.3810  109.3850 O.2    12  MOL12      -0.2502
   7166  O66      106.6550  117.0660  111.2370 O.3    12  MOL12      -0.4605
   7167  C66      105.2010  116.8690  111.4810 C.3    12  MOL12       0.1290
   7168  C66      104.5690  115.4800  111.8370 C.3    12  MOL12       0.1341
   7169  C66      104.5270  114.7690  110.5440 C.3    12  MOL12      -0.0244
   7170  C67      102.8980  107.4760  112.7620 C.3    12  MOL12       0.0162
   7171  C67      103.1820  106.5930  111.4120 C.3    12  MOL12      -0.0305
   7172  C67      104.1770  105.7330  110.4740 C.3    12  MOL12       0.0050
   7173  S67      105.2940  104.3030  110.9790 S.3    12  MOL12      -0.0928
   7174  C67      103.1820  108.5480  114.0390 C.3    12  MOL12      -0.0403
   7175  C67      103.7960  109.7060  115.0200 C.3    12  MOL12      -0.0515
   7176  C67      104.4790  111.1530  115.2820 C.3    12  MOL12      -0.0429
   7177  C67      104.5660  112.7090  114.8630 C.3    12  MOL12       0.0450
   7178  C67      104.0890  113.9560  113.9730 C.2    12  MOL12       0.3074
   7179  O67      104.7590  114.3500  112.8400 O.3    12  MOL12      -0.4582
   7180  O68      103.1810  114.5930  114.3940 O.2    12  MOL12      -0.2508
   7181  C68       96.2700  107.9990  105.8720 C.3    12  MOL12       0.0162
   7182  C68      114.3800  112.8940  110.4160 C.2    12  MOL12       0.3344
   7183  C68      115.6130  112.4290  111.1950 C.2    12  MOL12       0.0264
   7184  C68      115.9170  111.1340  111.3670 C.2    12  MOL12      -0.0890
   7185  C68      116.5560  113.3600  111.9090 C.3    12  MOL12      -0.0335
   7186  O68      114.1940  114.0760  110.2740 O.2    12  MOL12      -0.2453
   7187  O68      113.4990  111.9770  109.9000 O.3    12  MOL12      -0.4577
   7188  C68      112.0930  111.8650  109.4130 C.3    12  MOL12       0.1293
   7189  C68      110.8000  111.1330  110.0320 C.3    12  MOL12       0.1341
   7190  C69      109.9290  111.1810  108.7410 C.3    12  MOL12      -0.0244
   7191  C69      107.8010  102.8740  110.1250 C.3    12  MOL12       0.0162
   7192  C69      107.8110  101.5080  110.8070 C.3    12  MOL12      -0.0313
   7193  C69      109.1970  101.3780  111.3850 C.3    12  MOL12      -0.0056
   7194  S69      109.2760  101.0860  113.1360 S.3    12  MOL12      -0.1641
   7195  C69      109.2770  103.3170  109.4540 C.3    12  MOL12      -0.0403
   7196  C69      110.4270  104.5390  109.6940 C.3    12  MOL12      -0.0515
   7197  C69      111.2680  105.8710  110.3320 C.3    12  MOL12      -0.0429
   7198  C69      111.6630  107.2710  111.2500 C.3    12  MOL12       0.0450
   7199  C69      111.1300  108.7620  111.8920 C.2    12  MOL12       0.3074
   7200  O70      110.8240  110.0100  111.1570 O.3    12  MOL12      -0.4582
   7201  O70      111.0150  108.8650  113.0660 O.2    12  MOL12      -0.2508
   7202  C70      110.9860  101.5960  113.5770 C.3    12  MOL12      -0.0181
   7203  S70      106.1500  103.2720  109.3650 S.3    12  MOL12      -0.0897
   7204  C70       96.6130  118.9440  108.6030 C.2    12  MOL12       0.3344
   7205  C70       95.4380  119.4110  109.3150 C.2    12  MOL12       0.0264
   7206  C70       95.1550  118.8560  110.5100 C.2    12  MOL12      -0.0890
   7207  C70       94.6910  120.5480  108.7180 C.3    12  MOL12      -0.0335
   7208  O70       96.9170  119.3120  107.4910 O.2    12  MOL12      -0.2453
   7209  O70       97.4340  118.0950  109.2470 O.3    12  MOL12      -0.4577
   7210  C71       98.7930  118.4570  109.3320 C.3    12  MOL12       0.1293
   7211  C71       99.5920  118.2270  108.0990 C.3    12  MOL12       0.1341
   7212  C71      101.0570  118.5240  108.3870 C.3    12  MOL12      -0.0244
   7213  S71      101.6830  109.2400  104.9030 S.3    12  MOL12      -0.0897
   7214  C71      101.0930  110.4940  106.2700 C.3    12  MOL12       0.0162
   7215  C71      100.3640  110.4290  107.7260 C.3    12  MOL12      -0.0305
   7216  C71      100.1580  109.7440  109.1850 C.3    12  MOL12       0.0050
   7217  S71      100.5500  108.8100  110.7440 S.3    12  MOL12      -0.0928
   7218  C71      102.0640  111.6230  105.9540 C.3    12  MOL12      -0.0403
   7219  C71      101.7390  113.0730  106.3690 C.3    12  MOL12      -0.0515
   7220  C72      101.1430  114.3310  105.6750 C.3    12  MOL12      -0.0429
   7221  C72       99.9510  115.2300  106.1170 C.3    12  MOL12       0.0450
   7222  C72       99.8150  115.8750  107.4840 C.2    12  MOL12       0.3074
   7223  O72       99.3030  117.1000  107.2600 O.3    12  MOL12      -0.4582
   7224  O72      100.1560  115.4630  108.5430 O.2    12  MOL12      -0.2508
   7225  S72      101.0850  107.7840  112.3670 S.3    12  MOL12      -0.0897
   7226  C72      124.4190  123.5370  110.5610 C.3    12  MOL12      -0.0559
   7227  C72      123.2130  122.7430  110.9970 C.3    12  MOL12      -0.0533
   7228  C72      123.1400  121.2280  111.2090 C.3    12  MOL12      -0.0531
   7229  C72      121.6710  120.9550  111.5570 C.3    12  MOL12      -0.0531
   7230  C73      121.1080  119.8740  112.4810 C.3    12  MOL12      -0.0531
   7231  C73      119.7520  120.3620  113.0650 C.3    12  MOL12      -0.0531
   7232  C73      118.6150  119.4290  112.6830 C.3    12  MOL12      -0.0531
   7233  C73      117.3480  119.9450  112.0070 C.3    12  MOL12      -0.0530
   7234  C73      116.5130  118.6920  111.8040 C.3    12  MOL12      -0.0500
   7235  C73      115.6300  118.3470  110.6360 C.3    12  MOL12      -0.0185
   7236  C73      114.8800  117.1210  111.0240 C.3    12  MOL12       0.0925
   7237  C73      124.0170  125.0210  110.5530 C.3    12  MOL12      -0.0653
   7238  C73      112.2410  116.3120  108.7090 C.3    12  MOL12       0.0537
   7239  C73      113.6840  116.5430  109.0680 C.2    12  MOL12       0.3099
   7240  O74      113.6640  117.0560  110.3120 O.3    12  MOL12      -0.4644
   7241  O74      114.7300  116.2930  108.5210 O.2    12  MOL12      -0.2505
   7242  C74      111.6720  116.3370  107.2790 C.3    12  MOL12      -0.0523
   7243  C74      111.3800  117.0840  109.7600 C.3    12  MOL12      -0.0394
   7244  C74      109.1600  116.9730  111.8240 C.3    12  MOL12      -0.0497
   7245  O74       83.5420   92.8160  104.6830 O.2    12  MOL12      -0.2510
   7246  O74       83.9890   93.5850  102.6070 O.3    12  MOL12      -0.4806
   7247  C74       83.5030   93.6900  103.8740 C.2    12  MOL12       0.3047
   7248  C74       83.0380   95.1070  104.1020 C.3    12  MOL12       0.0448
   7249  C74       81.8370   95.3810  105.0330 C.3    12  MOL12      -0.0430
   7250  C75       82.3030   96.3960  106.0510 C.3    12  MOL12      -0.0515
   7251  C75       81.3670   97.3220  106.8090 C.3    12  MOL12      -0.0403
   7252  S75       84.6020  101.1880  107.1780 S.3    12  MOL12      -0.0928
   7253  C75       84.1750   99.6420  107.9330 C.3    12  MOL12       0.0050
   7254  C75       83.3960   98.7530  107.0270 C.3    12  MOL12      -0.0305
   7255  C75       96.5680  100.6870  109.0100 C.2    12  MOL12       0.3129
   7256  C75       96.8480   99.1730  109.0010 C.3    12  MOL12       0.0622
   7257  C75       95.5900   98.4930  108.5060 C.3    12  MOL12      -0.0370
   7258  C75       97.7840   99.0020  107.8050 C.3    12  MOL12      -0.0497
   7259  O75       97.2550  101.4020  108.3370 O.2    12  MOL12      -0.2502
   7260  O76       95.4340  101.1370  109.6920 O.3    12  MOL12      -0.4605
   7261  C76       95.2360  100.9560  111.1070 C.3    12  MOL12       0.1290
   7262  C76       94.2090  101.7720  111.9020 C.3    12  MOL12       0.1341
   7263  C76       93.9230  103.2650  111.9930 C.3    12  MOL12      -0.0244
   7264  C76       90.1790  104.9920  108.6180 C.3    12  MOL12       0.0162
   7265  C76       90.6200  106.6110  108.8010 C.3    12  MOL12      -0.0305
   7266  C76       91.1300  108.1870  108.6990 C.3    12  MOL12       0.0050
   7267  S76       92.0120  109.3890  107.6030 S.3    12  MOL12      -0.0928
   7268  C76       90.8980  104.0470  109.5740 C.3    12  MOL12      -0.0403
   7269  C76       91.0810  102.5660  109.0490 C.3    12  MOL12      -0.0515
   7270  C77       90.8760  101.2490  109.8670 C.3    12  MOL12      -0.0429
   7271  C77       90.7460  101.0790  111.3950 C.3    12  MOL12       0.0450
   7272  C77       91.9120  101.1900  112.2460 C.2    12  MOL12       0.3074
   7273  O77       92.9450  101.3380  111.4100 O.3    12  MOL12      -0.4582
   7274  O77       91.9670  101.1760  113.4540 O.2    12  MOL12      -0.2508
   7275  S77       81.0070   99.9830  107.4930 S.3    12  MOL12      -0.0897
   7276  C77       82.0240   98.4640  107.5830 C.3    12  MOL12       0.0162
   7277  C77       91.5660  117.1880  104.1230 C.2    12  MOL12       0.3344
   7278  C77       91.7170  118.5770  103.7900 C.2    12  MOL12       0.0264
   7279  C77       92.3710  119.3920  104.6300 C.2    12  MOL12      -0.0890
   7280  C78       91.0560  118.9560  102.5270 C.3    12  MOL12      -0.0335
   7281  O78       90.6850  116.5000  103.6560 O.2    12  MOL12      -0.2453
   7282  O78       92.4830  116.6850  104.9690 O.3    12  MOL12      -0.4577
   7283  C78       92.1720  115.4490  105.5460 C.3    12  MOL12       0.1293
   7284  C78       92.9540  114.2630  105.1690 C.3    12  MOL12       0.1341
   7285  C78       92.5940  113.2550  106.3570 C.3    12  MOL12      -0.0244
   7286  C78       93.0580  108.3300  104.6370 C.3    12  MOL12       0.0162
   7287  C78       93.0220  107.0060  103.8270 C.3    12  MOL12      -0.0305
   7288  C78       93.8530  106.8580  102.5880 C.3    12  MOL12       0.0050
   7289  S78       95.3550  106.0300  103.0050 S.3    12  MOL12      -0.0928
   7290  C79       92.1050  109.3640  104.1020 C.3    12  MOL12      -0.0403
   7291  C79       92.6800  109.8430  102.6990 C.3    12  MOL12      -0.0515
   7292  C79       92.4330  111.1100  101.6900 C.3    12  MOL12      -0.0429
   7293  C79       92.8490  112.7140  101.5610 C.3    12  MOL12       0.0450
   7294  C79       92.6470  114.0100  102.5050 C.2    12  MOL12       0.3074
   7295  O79       93.2500  113.9040  103.7400 O.3    12  MOL12      -0.4582
   7296  O79       91.9540  114.9140  102.1360 O.2    12  MOL12      -0.2508
   7297  S79       96.0090  107.6560  104.0560 S.3    12  MOL12      -0.0897
   7298  S79       93.3850  108.3900  106.4790 S.3    12  MOL12      -0.0897
   7299  C79       84.4090   95.9350  108.4200 C.2    12  MOL12       0.3344
   7300  C80       83.0730   95.3820  108.6820 C.2    12  MOL12       0.0264
   7301  C80       82.4370   96.0660  109.6090 C.2    12  MOL12      -0.0890
   7302  C80       82.3680   94.2750  107.9410 C.3    12  MOL12      -0.0335
   7303  O80       85.0490   95.5700  107.4690 O.2    12  MOL12      -0.2453
   7304  O80       84.9860   96.8790  109.2470 O.3    12  MOL12      -0.4577
   7305  C80       86.4040   96.8090  109.1600 C.3    12  MOL12       0.1293
   7306  C80       87.0790   97.7960  108.3180 C.3    12  MOL12       0.1341
   7307  C80       88.5740   97.8020  108.7040 C.3    12  MOL12      -0.0244
   7308  S80       82.8930  101.8780  106.2780 S.3    12  MOL12      -0.0897
   7309  C80       83.8330  103.1080  105.3370 C.3    12  MOL12       0.0162
   7310  C81       84.2710  104.1330  106.4210 C.3    12  MOL12      -0.0305
   7311  C81       85.6950  104.6250  106.6120 C.3    12  MOL12       0.0050
   7312  S81       86.5820  103.6370  107.8980 S.3    12  MOL12      -0.0928
   7313  C81       84.8910  102.3640  104.5180 C.3    12  MOL12      -0.0403
   7314  C81       84.5670  100.9770  103.8990 C.3    12  MOL12      -0.0515
   7315  C81       85.6390   99.8230  104.0230 C.3    12  MOL12      -0.0429
   7316  C81       86.3300   98.6350  104.7650 C.3    12  MOL12       0.0450
   7317  C81       87.0200   98.6080  106.1060 C.2    12  MOL12       0.3074
   7318  O81       86.5160   97.7170  106.9820 O.3    12  MOL12      -0.4582
   7319  O81       88.0550   99.1590  106.3250 O.2    12  MOL12      -0.2508
   7320  S82       88.5260  103.9430  108.6210 S.3    12  MOL12      -0.0897
   7321  C82       97.1590   83.3300  110.4590 C.3    12  MOL12      -0.0559
   7322  C82       97.2950   84.4150  109.4260 C.3    12  MOL12      -0.0533
   7323  C82       96.0080   85.2290  109.4210 C.3    12  MOL12      -0.0531
   7324  C82       96.2710   86.5800  110.0850 C.3    12  MOL12      -0.0531
   7325  C82       95.1100   87.5800  110.3300 C.3    12  MOL12      -0.0531
   7326  C82       95.7290   88.9000  109.9890 C.3    12  MOL12      -0.0531
   7327  C82       95.2060   90.2750  109.6540 C.3    12  MOL12      -0.0531
   7328  C82       94.1500   91.1760  110.2170 C.3    12  MOL12      -0.0530
   7329  C82       93.0760   91.4850  109.2110 C.3    12  MOL12      -0.0500
   7330  C83       93.5810   91.9710  107.8500 C.3    12  MOL12      -0.0185
   7331  C83       94.9470   92.6430  107.7910 C.3    12  MOL12       0.0925
   7332  C83       98.3700   82.4970  110.6460 C.3    12  MOL12      -0.0653
   7333  C83       95.6560   96.0360  108.8210 C.3    12  MOL12       0.0537
   7334  C83       96.0070   94.7080  108.2430 C.2    12  MOL12       0.3099
   7335  O83       94.9430   93.9030  108.4430 O.3    12  MOL12      -0.4644
   7336  O83       97.0350   94.3790  107.6910 O.2    12  MOL12      -0.2505
   7337  C83       94.2390   96.1880  109.3770 C.3    12  MOL12      -0.0523
   7338  C83       95.7720   97.1430  107.8030 C.3    12  MOL12      -0.0394
   7339  C83       97.4540   98.7170  110.3260 C.3    12  MOL12      -0.0497
   7340  O84       64.9570  113.8370  100.5650 O.2    12  MOL12      -0.2510
   7341  O84       66.6740  112.8390   99.5130 O.3    12  MOL12      -0.4806
   7342  C84       65.7210  112.9310  100.4900 C.2    12  MOL12       0.3047
   7343  C84       65.8410  111.7490  101.4500 C.3    12  MOL12       0.0448
   7344  C84       64.7330  111.6830  102.5670 C.3    12  MOL12      -0.0430
   7345  C84       64.5790  110.6590  103.8180 C.3    12  MOL12      -0.0516
   7346  C84       64.4540  109.6030  105.0530 C.3    12  MOL12      -0.0411
   7347  S84       68.0340  105.6500  105.2820 S.3    12  MOL12      -0.0928
   7348  C84       66.4040  105.9180  106.0660 C.3    12  MOL12       0.0049
   7349  C84       66.2160  107.4110  105.7010 C.3    12  MOL12      -0.0313
   7350  C85       78.1430  112.6810  103.2850 C.2    12  MOL12       0.3129
   7351  C85       78.8070  113.2670  104.5060 C.3    12  MOL12       0.0622
   7352  C85       80.1470  112.6720  105.0230 C.3    12  MOL12      -0.0370
   7353  C85       78.6000  114.7320  104.3900 C.3    12  MOL12      -0.0497
   7354  O85       77.7740  113.2850  102.3070 O.2    12  MOL12      -0.2502
   7355  O85       77.8760  111.3690  103.5400 O.3    12  MOL12      -0.4605
   7356  C85       76.7200  110.8880  102.8790 C.3    12  MOL12       0.1290
   7357  C85       75.6350  110.3790  103.7400 C.3    12  MOL12       0.1341
   7358  C85       74.5270  110.1280  102.7420 C.3    12  MOL12      -0.0244
   7359  C85       76.3990  104.7350  102.6420 C.3    12  MOL12       0.0162
   7360  C86       76.1600  103.4850  101.7990 C.3    12  MOL12      -0.0305
   7361  C86       76.5790  102.2640  102.5900 C.3    12  MOL12       0.0050
   7362  S86       75.4030  101.0140  103.0490 S.3    12  MOL12      -0.0928
   7363  C86       77.1720  105.7300  101.8440 C.3    12  MOL12      -0.0403
   7364  C86       77.0760  107.1860  102.2680 C.3    12  MOL12      -0.0515
   7365  C86       77.6870  107.3820  103.6590 C.3    12  MOL12      -0.0429
   7366  C86       76.7080  107.1650  104.8140 C.3    12  MOL12       0.0450
   7367  C86       75.5470  108.0530  104.5650 C.2    12  MOL12       0.3074
   7368  O86       76.1810  109.2050  104.3110 O.3    12  MOL12      -0.4582
   7369  O86       74.3580  107.8510  104.5800 O.2    12  MOL12      -0.2508
   7370  S87       63.6830  107.6610  106.9040 S.3    12  MOL12      -0.1607
   7371  C87       64.8360  108.1330  105.5900 C.3    12  MOL12       0.0058
   7372  C87       63.5080  105.9080  106.6960 C.3    12  MOL12      -0.0178
   7373  C87       84.9720  106.5650  103.8030 C.2    12  MOL12       0.3344
   7374  C87       85.5810  105.5320  102.9590 C.2    12  MOL12       0.0264
   7375  C87       84.7700  104.6440  102.3720 C.2    12  MOL12      -0.0890
   7376  C87       87.0790  105.4900  102.8210 C.3    12  MOL12      -0.0335
   7377  O87       85.6890  107.3300  104.4080 O.2    12  MOL12      -0.2453
   7378  O87       83.6030  106.6480  103.9560 O.3    12  MOL12      -0.4577
   7379  C87       83.1850  107.6140  104.9310 C.3    12  MOL12       0.1293
   7380  C88       81.8350  107.3410  105.5660 C.3    12  MOL12       0.1341
   7381  C88       80.6060  108.3040  105.5000 C.3    12  MOL12      -0.0244
   7382  C88       77.2430  100.2920  105.2690 C.3    12  MOL12       0.0162
   7383  C88       77.3550   99.0800  106.2400 C.3    12  MOL12      -0.0305
   7384  C88       78.4630   98.6090  107.1600 C.3    12  MOL12       0.0050
   7385  S88       79.2620   99.6200  108.4320 S.3    12  MOL12      -0.0928
   7386  C88       78.2220  101.4580  105.5100 C.3    12  MOL12      -0.0403
   7387  C88       79.1510  101.9720  104.4170 C.3    12  MOL12      -0.0515
   7388  C88       79.2330  103.4910  104.4700 C.3    12  MOL12      -0.0429
   7389  C88       80.2240  103.9450  105.5090 C.3    12  MOL12       0.0450
   7390  C89       80.2120  105.4460  105.5580 C.2    12  MOL12       0.3074
   7391  O89       81.4790  105.9350  105.3880 O.3    12  MOL12      -0.4582
   7392  O89       79.2070  106.0750  105.7430 O.2    12  MOL12      -0.2508
   7393  S89       76.9320   99.7900  103.5490 S.3    12  MOL12      -0.0897
   7394  C89       69.3180  115.3420  101.3000 C.2    12  MOL12       0.3344
   7395  C89       68.1630  115.9890  101.9050 C.2    12  MOL12       0.0264
   7396  C89       67.1500  115.1530  102.0920 C.2    12  MOL12      -0.0890
   7397  C89       68.1200  117.4260  102.2960 C.3    12  MOL12      -0.0335
   7398  O89       70.2740  115.9690  100.8950 O.2    12  MOL12      -0.2453
   7399  O89       69.3060  113.9620  101.2320 O.3    12  MOL12      -0.4577
   7400  C90       70.5140  113.3110  101.6290 C.3    12  MOL12       0.1293
   7401  C90       70.6880  112.0950  100.7920 C.3    12  MOL12       0.1341
   7402  C90       72.1000  111.7690  100.2330 C.3    12  MOL12      -0.0244
   7403  S90       68.7330  103.7280  104.9980 S.3    12  MOL12      -0.0897
   7404  C90       70.3460  104.4570  104.5880 C.3    12  MOL12       0.0162
   7405  C90       71.6290  103.6500  104.7680 C.3    12  MOL12      -0.0305
   7406  C90       72.7580  104.6350  104.5660 C.3    12  MOL12       0.0050
   7407  S90       74.3910  103.9140  104.4540 S.3    12  MOL12      -0.0928
   7408  C90       70.2870  105.1250  103.2230 C.3    12  MOL12      -0.0403
   7409  C90       70.3890  106.6470  103.4000 C.3    12  MOL12      -0.0515
   7410  C91       70.9650  107.4990  102.2840 C.3    12  MOL12      -0.0429
   7411  C91       70.1930  108.7740  101.9500 C.3    12  MOL12       0.0450
   7412  C91       70.7750  110.1570  102.0540 C.2    12  MOL12       0.3074
   7413  O91       70.0140  110.9110  101.2300 O.3    12  MOL12      -0.4582
   7414  O91       71.7010  110.6090  102.6680 O.2    12  MOL12      -0.2508
   7415  S91       74.8630  105.4120  103.1840 S.3    12  MOL12      -0.0897
   7416  C91       87.9000  124.6180  106.4490 C.3    12  MOL12      -0.0559
   7417  C91       88.2720  123.4100  107.2820 C.3    12  MOL12      -0.0533
   7418  C91       87.2530  122.3450  106.8640 C.3    12  MOL12      -0.0531
   7419  C91       87.1530  121.3190  107.9260 C.3    12  MOL12      -0.0531
   7420  C92       86.4640  120.0200  107.6630 C.3    12  MOL12      -0.0531
   7421  C92       86.8160  119.1740  108.8870 C.3    12  MOL12      -0.0531
   7422  C92       86.8150  117.6590  108.7580 C.3    12  MOL12      -0.0531
   7423  C92       86.1880  116.9740  107.5400 C.3    12  MOL12      -0.0530
   7424  C92       86.9110  115.7350  107.1020 C.3    12  MOL12      -0.0500
   7425  C92       85.9450  114.6110  106.9000 C.3    12  MOL12      -0.0185
   7426  C92       86.1600  113.6140  105.7960 C.3    12  MOL12       0.0925
   7427  C92       88.7610  125.7010  105.8590 C.3    12  MOL12      -0.0653
   7428  C92       82.8390  113.8230  104.3420 C.3    12  MOL12       0.0537
   7429  C92       84.0200  112.9880  104.7090 C.2    12  MOL12       0.3099
   7430  O93       85.0020  113.8420  105.0090 O.3    12  MOL12      -0.4644
   7431  O93       84.0870  111.7900  104.7150 O.2    12  MOL12      -0.2505
   7432  C93       83.2500  115.3180  104.2800 C.3    12  MOL12      -0.0523
   7433  C93       81.5610  113.3280  105.1730 C.3    12  MOL12      -0.0394
   7434  C93       77.8620  112.8050  105.5890 C.3    12  MOL12      -0.0497
   7435 5H93       97.3060  115.6020  107.3010 H      12  MOL12       0.2951
   7436 6H93       95.1020  114.2520  107.4250 H      12  MOL12       0.0377
   7437 7H93       96.8140  114.0570  107.4100 H      12  MOL12       0.0377
   7438 8H93       95.4970  112.1870  105.5910 H      12  MOL12       0.0270
   7439 9H93       94.6340  112.1560  107.0620 H      12  MOL12       0.0270
   7440 0H94       95.8250  110.8900  108.2010 H      12  MOL12       0.0266
   7441 1H94       97.3770  111.0260  107.6600 H      12  MOL12       0.0266
   7442 2H94       95.0050  109.9560  106.0370 H      12  MOL12       0.0276
   7443 3H94       95.6330  109.1250  107.4800 H      12  MOL12       0.0276
   7444 4H94       99.0550  105.9550  105.4500 H      12  MOL12       0.0385
   7445 5H94       98.1750  106.7870  104.2810 H      12  MOL12       0.0385
   7446 6H94       97.7080  107.8430  107.2740 H      12  MOL12       0.0284
   7447 7H94       97.2870  106.3460  106.5920 H      12  MOL12       0.0284
   7448 8H94      109.6340  117.7150  108.5840 H      12  MOL12       0.0276
   7449 9H94      109.8090  116.0940  109.0900 H      12  MOL12       0.0276
   7450 0H95      108.8680  119.7980  110.6760 H      12  MOL12       0.0240
   7451 1H95      110.2710  119.2890  109.9280 H      12  MOL12       0.0240
   7452 2H95      110.1090  119.0390  111.6160 H      12  MOL12       0.0240
   7453 3H95      104.8360  117.5940  112.2150 H      12  MOL12       0.0735
   7454 4H95      104.6620  117.1460  110.5540 H      12  MOL12       0.0735
   7455 5H95      103.5460  115.7730  111.9200 H      12  MOL12       0.0765
   7456 6H95      104.0090  113.8780  110.8320 H      12  MOL12       0.0266
   7457 7H95      105.4210  114.4060  110.0670 H      12  MOL12       0.0266
   7458 8H95      104.0510  115.4390  109.8420 H      12  MOL12       0.0266
   7459 9H95      102.5370  106.6800  113.4470 H      12  MOL12       0.0421
   7460 0H96      102.7590  107.1990  110.5850 H      12  MOL12       0.0284
   7461 1H96      102.3650  105.8850  111.6090 H      12  MOL12       0.0284
   7462 2H96      104.7150  106.3650  109.7610 H      12  MOL12       0.0385
   7463 3H96      103.3860  105.3560  109.8430 H      12  MOL12       0.0385
   7464 4H96      102.3260  109.1330  113.7730 H      12  MOL12       0.0276
   7465 5H96      102.7280  107.9530  114.8420 H      12  MOL12       0.0276
   7466 6H96      104.5110  109.1580  115.6670 H      12  MOL12       0.0266
   7467 7H96      102.8810  109.7740  115.6310 H      12  MOL12       0.0266
   7468 8H96      105.5540  110.9120  115.4290 H      12  MOL12       0.0270
   7469 9H96      104.1420  111.2700  116.3300 H      12  MOL12       0.0270
   7470 0H97      105.4140  113.0350  115.4880 H      12  MOL12       0.0377
   7471 1H97      103.7210  112.9430  115.5320 H      12  MOL12       0.0377
   7472 2H97       95.5700  107.4120  106.4820 H      12  MOL12       0.0421
   7473 3H97      116.7400  110.8300  112.0130 H      12  MOL12       0.0540
   7474 4H97      115.2990  110.3160  111.0160 H      12  MOL12       0.0540
   7475 5H97      117.5920  113.1730  111.6070 H      12  MOL12       0.0280
   7476 6H97      116.5700  113.1250  112.9730 H      12  MOL12       0.0280
   7477 7H97      116.2590  114.4060  111.8040 H      12  MOL12       0.0280
   7478 8H97      111.7590  112.8470  109.0770 H      12  MOL12       0.0735
   7479 9H97      112.2720  111.2470  108.5250 H      12  MOL12       0.0735
   7480 0H98      110.2510  111.7590  110.6820 H      12  MOL12       0.0765
   7481 1H98      110.0380  112.2120  108.3610 H      12  MOL12       0.0266
   7482 2H98      108.8480  111.0740  108.8430 H      12  MOL12       0.0266
   7483 3H98      110.2470  110.5340  107.9140 H      12  MOL12       0.0266
   7484 4H98      107.5590  103.3130  111.0750 H      12  MOL12       0.0421
   7485 5H98      107.6240  100.7020  110.1200 H      12  MOL12       0.0284
   7486 6H98      107.0380  101.4760  111.5950 H      12  MOL12       0.0284
   7487 7H98      109.7090  102.3420  111.3670 H      12  MOL12       0.0377
   7488 8H98      109.6850  100.6650  110.7210 H      12  MOL12       0.0377
   7489 9H98      109.9150  102.4170  109.4960 H      12  MOL12       0.0276
   7490 0H99      109.2100  103.4340  108.3710 H      12  MOL12       0.0276
   7491 1H99      110.0330  105.1440  108.8730 H      12  MOL12       0.0266
   7492 2H99      111.3120  104.0730  109.2120 H      12  MOL12       0.0266
   7493 3H99      111.4920  106.2640  109.3140 H      12  MOL12       0.0270
   7494 4H99      112.1920  105.3590  110.3370 H      12  MOL12       0.0270
   7495 5H99      112.6840  107.3570  110.9580 H      12  MOL12       0.0377
   7496 6H99      111.7040  106.9540  112.2700 H      12  MOL12       0.0377
   7497 7H99      111.7070  100.7880  113.7680 H      12  MOL12       0.0340
   7498 8H99      110.9910  102.1440  114.5110 H      12  MOL12       0.0340
   7499 9H99      111.3960  102.2770  112.8400 H      12  MOL12       0.0340
   7500  H10       94.2930  119.1510  111.0960 H      12  MOL12       0.0540
   7501  H10       95.7970  118.1130  110.9710 H      12  MOL12       0.0540
   7502  H10       94.1190  120.2010  107.8590 H      12  MOL12       0.0280
   7503  H10       95.3290  121.3740  108.3810 H      12  MOL12       0.0280
   7504  H10       94.0300  120.9680  109.4810 H      12  MOL12       0.0280
   7505  H10       98.8900  119.5250  109.5500 H      12  MOL12       0.0735
   7506  H10       99.1570  117.9820  110.2440 H      12  MOL12       0.0735
   7507  H10       99.2580  119.0250  107.4400 H      12  MOL12       0.0765
   7508  H10      101.7430  118.2860  107.5760 H      12  MOL12       0.0266
   7509  H10      101.4290  118.0220  109.2850 H      12  MOL12       0.0266
   7510  H10      101.1280  119.5970  108.5540 H      12  MOL12       0.0266
   7511  H10      100.3140  111.1180  105.9170 H      12  MOL12       0.0421
   7512  H10      100.6310  111.4350  107.9770 H      12  MOL12       0.0284
   7513  H10       99.2960  110.4730  107.4730 H      12  MOL12       0.0284
   7514  H10       99.2070  109.2010  109.1110 H      12  MOL12       0.0385
   7515  H10       99.6220  110.4840  109.7940 H      12  MOL12       0.0385
   7516  H10      102.0590  111.6030  104.9010 H      12  MOL12       0.0276
   7517  H10      103.1080  111.3480  106.1390 H      12  MOL12       0.0276
   7518  H10      102.7480  113.3820  106.5480 H      12  MOL12       0.0266
   7519  H10      101.2330  113.0170  107.2940 H      12  MOL12       0.0266
   7520  H10      100.9970  114.2220  104.6050 H      12  MOL12       0.0270
   7521  H10      101.9800  115.0270  105.7090 H      12  MOL12       0.0270
   7522  H10       98.9480  114.9690  105.8020 H      12  MOL12       0.0377
   7523  H10      100.0280  116.0960  105.4930 H      12  MOL12       0.0377
   7524  H10      124.6860  123.2300  109.5590 H      12  MOL12       0.0263
   7525  H10      125.3090  123.3310  111.1520 H      12  MOL12       0.0263
   7526  H10      122.5130  122.9730  110.2110 H      12  MOL12       0.0265
   7527  H10      122.8280  123.2220  111.9060 H      12  MOL12       0.0265
   7528  H10      123.8150  120.9150  111.9950 H      12  MOL12       0.0265
   7529  H10      123.4320  120.6650  110.3100 H      12  MOL12       0.0265
   7530  H10      121.1910  120.8060  110.5940 H      12  MOL12       0.0265
   7531  H10      121.2760  121.8910  111.9620 H      12  MOL12       0.0265
   7532  H10      121.7520  119.6260  113.3190 H      12  MOL12       0.0265
   7533  H10      121.0090  118.9210  111.9370 H      12  MOL12       0.0265
   7534  H10      119.5250  121.4010  112.7840 H      12  MOL12       0.0265
   7535  H10      119.8170  120.3890  114.1610 H      12  MOL12       0.0265
   7536  H10      118.3120  118.8830  113.5850 H      12  MOL12       0.0265
   7537  H10      119.0230  118.6780  111.9890 H      12  MOL12       0.0265
   7538  H10      117.5460  120.3940  111.0430 H      12  MOL12       0.0265
   7539  H10      116.8310  120.7100  112.6030 H      12  MOL12       0.0265
   7540  H10      115.9110  118.5590  112.6920 H      12  MOL12       0.0266
   7541  H10      117.2120  117.8560  111.8060 H      12  MOL12       0.0266
   7542  H10      116.2150  118.1110  109.7530 H      12  MOL12       0.0298
   7543  H10      114.8500  119.0610  110.3640 H      12  MOL12       0.0298
   7544  H10      114.5820  117.2670  112.0530 H      12  MOL12       0.0697
   7545  H10      115.4480  116.1880  110.9550 H      12  MOL12       0.0697
   7546  H10      123.5520  125.3250  111.4940 H      12  MOL12       0.0230
   7547  H10      123.3020  125.2280  109.7530 H      12  MOL12       0.0230
   7548  H10      124.8460  125.7130  110.3970 H      12  MOL12       0.0230
   7549  H10      112.2260  115.2390  108.9310 H      12  MOL12       0.0411
   7550  H10      112.2510  116.9120  106.5710 H      12  MOL12       0.0238
   7551  H10      110.6560  116.7310  107.2350 H      12  MOL12       0.0238
   7552  H10      111.5370  115.3300  106.8770 H      12  MOL12       0.0238
   7553  H10      111.7870  118.0820  109.8660 H      12  MOL12       0.0273
   7554  H10      111.5750  116.6210  110.7280 H      12  MOL12       0.0273
   7555  H10      110.1850  116.6180  111.8820 H      12  MOL12       0.0240
   7556  H10      108.5210  116.1280  111.9950 H      12  MOL12       0.0240
   7557  H10      109.0030  117.6900  112.6080 H      12  MOL12       0.0240
   7558  H10       83.8310   94.4040  102.1340 H      12  MOL12       0.2951
   7559  H10       82.8480   95.5680  103.1390 H      12  MOL12       0.0377
   7560  H10       83.9540   95.5400  104.5230 H      12  MOL12       0.0377
   7561  H10       81.4380   94.4800  105.5180 H      12  MOL12       0.0270
   7562  H10       81.0270   95.8050  104.4410 H      12  MOL12       0.0270
   7563  H10       82.9020   97.1220  105.5480 H      12  MOL12       0.0266
   7564  H10       83.0770   95.8940  106.5830 H      12  MOL12       0.0266
   7565  H10       80.5990   96.8680  107.4210 H      12  MOL12       0.0276
   7566  H10       80.9020   97.8390  105.9850 H      12  MOL12       0.0276
   7567  H10       83.7410   99.6790  108.9310 H      12  MOL12       0.0385
   7568  H10       85.1490   99.1890  108.0380 H      12  MOL12       0.0385
   7569  H10       83.9910   97.8350  106.9450 H      12  MOL12       0.0284
   7570  H10       83.3130   99.1610  106.0190 H      12  MOL12       0.0284
   7571  H10       95.1130   99.1680  107.7890 H      12  MOL12       0.0276
   7572  H10       94.9190   98.3800  109.3400 H      12  MOL12       0.0276
   7573  H10       97.1640   99.1840  106.9170 H      12  MOL12       0.0240
   7574  H10       98.2380   98.0170  107.6580 H      12  MOL12       0.0240
   7575  H10       98.5890   99.7360  107.8290 H      12  MOL12       0.0240
   7576  H10       96.1960  100.9340  111.6260 H      12  MOL12       0.0735
   7577  H10       94.8290   99.9610  111.2360 H      12  MOL12       0.0735
   7578  H10       94.3600  101.4410  112.9430 H      12  MOL12       0.0765
   7579  H10       93.2340  103.3940  112.8420 H      12  MOL12       0.0266
   7580  H10       93.3760  103.5870  111.1010 H      12  MOL12       0.0266
   7581  H10       94.7380  103.9550  112.1480 H      12  MOL12       0.0266
   7582  H10       90.4210  104.6630  107.6380 H      12  MOL12       0.0421
   7583  H10       90.4960  106.8260  109.8390 H      12  MOL12       0.0284
   7584  H10       89.9430  106.9460  108.0390 H      12  MOL12       0.0284
   7585  H10       91.4090  108.4830  109.7100 H      12  MOL12       0.0385
   7586  H10       90.1460  108.6910  108.7260 H      12  MOL12       0.0385
   7587  H10       90.3010  104.0270  110.4600 H      12  MOL12       0.0276
   7588  H10       91.7990  104.5670  109.8990 H      12  MOL12       0.0276
   7589  H10       92.0000  102.3840  108.4820 H      12  MOL12       0.0266
   7590  H10       90.3900  102.4140  108.2270 H      12  MOL12       0.0266
   7591  H10       91.6090  100.5490  109.4510 H      12  MOL12       0.0270
   7592  H10       89.9520  100.8120  109.4800 H      12  MOL12       0.0270
   7593  H10       90.2470  100.1240  111.5820 H      12  MOL12       0.0377
   7594  H10       90.1120  101.8490  111.8150 H      12  MOL12       0.0377
   7595  H10       82.1420   98.2050  108.6290 H      12  MOL12       0.0421
   7596  H10       92.6380  119.0710  105.6270 H      12  MOL12       0.0540
   7597  H10       92.6240  120.4310  104.4780 H      12  MOL12       0.0540
   7598  H10       91.7170  119.3710  101.7540 H      12  MOL12       0.0280
   7599  H10       90.3510  119.6630  102.8790 H      12  MOL12       0.0280
   7600  H11       90.4920  118.1180  102.1040 H      12  MOL12       0.0280
   7601  H11       92.3280  115.5670  106.6300 H      12  MOL12       0.0735
   7602  H11       91.1190  115.2440  105.4010 H      12  MOL12       0.0735
   7603  H11       93.9520  114.4400  105.5020 H      12  MOL12       0.0765
   7604  H11       93.1650  113.6180  107.2200 H      12  MOL12       0.0266
   7605  H11       92.8070  112.1860  106.2830 H      12  MOL12       0.0266
   7606  H11       91.5660  113.2700  106.7300 H      12  MOL12       0.0266
   7607  H11       93.9860  108.7570  104.3750 H      12  MOL12       0.0421
   7608  H11       91.9980  106.9150  103.5000 H      12  MOL12       0.0284
   7609  H11       93.2400  106.1060  104.3850 H      12  MOL12       0.0284
   7610  H11       94.1680  107.8070  102.1940 H      12  MOL12       0.0385
   7611  H11       93.3310  106.2230  101.8590 H      12  MOL12       0.0385
   7612  H11       91.9110  110.0380  104.9490 H      12  MOL12       0.0276
   7613  H11       91.0950  109.0330  103.9230 H      12  MOL12       0.0276
   7614  H11       92.3520  108.9820  102.1690 H      12  MOL12       0.0266
   7615  H11       93.7520  109.6450  102.7270 H      12  MOL12       0.0266
   7616  H11       91.3520  111.0860  101.5440 H      12  MOL12       0.0270
   7617  H11       92.7840  110.7720  100.7140 H      12  MOL12       0.0270
   7618  H11       92.2100  112.9840  100.7140 H      12  MOL12       0.0377
   7619  H11       93.8640  112.7760  101.1390 H      12  MOL12       0.0377
   7620  H11       81.4150   95.8580  109.8700 H      12  MOL12       0.0540
   7621  H11       82.9380   96.9440  109.9960 H      12  MOL12       0.0540
   7622  H11       82.8480   93.9600  107.0070 H      12  MOL12       0.0280
   7623  H11       81.3700   94.6310  107.6690 H      12  MOL12       0.0280
   7624  H11       82.2530   93.4130  108.5890 H      12  MOL12       0.0280
   7625  H11       86.8010   96.8910  110.1440 H      12  MOL12       0.0735
   7626  H11       86.7440   95.7990  108.9190 H      12  MOL12       0.0735
   7627  H11       86.8260   98.7740  108.6590 H      12  MOL12       0.0765
   7628  H11       88.6980   98.4800  109.5630 H      12  MOL12       0.0266
   7629  H11       89.2240   98.2630  107.9630 H      12  MOL12       0.0266
   7630  H11       88.9580   96.8340  109.0500 H      12  MOL12       0.0266
   7631  H11       83.1290  103.6400  104.6870 H      12  MOL12       0.0421
   7632  H11       83.6630  105.0360  106.2340 H      12  MOL12       0.0284
   7633  H11       83.9560  103.8390  107.4300 H      12  MOL12       0.0284
   7634  H11       85.4690  105.6280  106.9970 H      12  MOL12       0.0385
   7635  H11       86.2020  104.6900  105.6440 H      12  MOL12       0.0385
   7636  H11       85.5660  102.1460  105.2970 H      12  MOL12       0.0276
   7637  H11       85.4710  102.9990  103.8450 H      12  MOL12       0.0276
   7638  H11       84.5850  101.1230  102.8030 H      12  MOL12       0.0266
   7639  H11       83.5310  100.7320  104.1340 H      12  MOL12       0.0266
   7640  H11       86.5020  100.4640  104.0660 H      12  MOL12       0.0270
   7641  H11       85.7040   99.4280  103.0020 H      12  MOL12       0.0270
   7642  H11       87.2280   98.6570  104.1390 H      12  MOL12       0.0377
   7643  H11       86.0110   97.6080  104.5810 H      12  MOL12       0.0377
   7644  H11       96.2890   82.6950  110.2690 H      12  MOL12       0.0263
   7645  H11       97.0370   83.7900  111.4260 H      12  MOL12       0.0263
   7646  H11       97.5250   83.9890  108.4410 H      12  MOL12       0.0265
   7647  H11       98.1590   85.0370  109.7150 H      12  MOL12       0.0265
   7648  H11       95.2630   84.6670  109.9570 H      12  MOL12       0.0265
   7649  H11       95.5250   85.2810  108.4410 H      12  MOL12       0.0265
   7650  H11       97.0590   87.0500  109.4870 H      12  MOL12       0.0265
   7651  H11       96.8060   86.3960  111.0190 H      12  MOL12       0.0265
   7652  H11       94.7970   87.6700  111.3520 H      12  MOL12       0.0265
   7653  H11       94.1710   87.2680  109.8750 H      12  MOL12       0.0265
   7654  H11       96.2200   88.7120  109.0450 H      12  MOL12       0.0265
   7655  H11       96.5420   89.0080  110.7190 H      12  MOL12       0.0265
   7656  H11       94.8680   90.2210  108.6300 H      12  MOL12       0.0265
   7657  H11       96.1520   90.8210  109.5810 H      12  MOL12       0.0265
   7658  H11       94.5700   92.1520  110.2250 H      12  MOL12       0.0265
   7659  H11       93.8280   91.0190  111.2330 H      12  MOL12       0.0265
   7660  H11       92.4630   92.2540  109.6650 H      12  MOL12       0.0266
   7661  H11       92.5180   90.5800  109.0540 H      12  MOL12       0.0266
   7662  H11       92.8670   92.6640  107.3860 H      12  MOL12       0.0298
   7663  H11       93.5660   91.0940  107.1920 H      12  MOL12       0.0298
   7664  H11       95.1360   92.7840  106.7460 H      12  MOL12       0.0697
   7665  H11       95.8090   92.0690  108.1300 H      12  MOL12       0.0697
   7666  H11       98.0670   81.6550  111.2690 H      12  MOL12       0.0230
   7667  H11       99.1260   83.0850  111.1790 H      12  MOL12       0.0230
   7668  H11       98.7630   82.1580  109.6870 H      12  MOL12       0.0230
   7669  H11       96.3990   96.1830  109.6120 H      12  MOL12       0.0411
   7670  H11       93.6370   96.8640  108.7550 H      12  MOL12       0.0238
   7671  H11       94.2510   96.6480  110.3480 H      12  MOL12       0.0238
   7672  H11       93.7180   95.2520  109.5250 H      12  MOL12       0.0238
   7673  H11       94.9600   97.0210  107.0630 H      12  MOL12       0.0273
   7674  H11       96.6960   97.0710  107.2230 H      12  MOL12       0.0273
   7675  H11       97.4170   97.6300  110.3800 H      12  MOL12       0.0240
   7676  H11       96.9760   99.1470  111.2070 H      12  MOL12       0.0240
   7677  H11       98.5070   98.9830  110.4330 H      12  MOL12       0.0240
   7678  H11       67.2690  112.0980   99.6430 H      12  MOL12       0.2951
   7679  H11       66.8800  111.8170  101.8140 H      12  MOL12       0.0377
   7680  H11       65.7910  110.8420  100.8390 H      12  MOL12       0.0377
   7681  H11       63.8260  111.6380  101.9670 H      12  MOL12       0.0270
   7682  H11       64.5770  112.6220  103.0540 H      12  MOL12       0.0270
   7683  H11       65.5960  110.8370  104.1190 H      12  MOL12       0.0266
   7684  H11       64.3330  109.9090  103.1110 H      12  MOL12       0.0266
   7685  H11       63.4790  109.2860  104.7640 H      12  MOL12       0.0276
   7686  H11       64.3730  110.2830  105.8980 H      12  MOL12       0.0276
   7687  H11       66.4200  105.7340  107.1440 H      12  MOL12       0.0385
   7688  H11       65.6360  105.2880  105.6180 H      12  MOL12       0.0385
   7689  H11       66.4510  107.3750  104.6450 H      12  MOL12       0.0284
   7690  H11       67.0290  107.9980  106.1470 H      12  MOL12       0.0284
   7691  H11       80.1480  111.6220  104.6930 H      12  MOL12       0.0276
   7692  H11       79.9850  112.5370  106.1140 H      12  MOL12       0.0276
   7693  H11       78.8480  115.0610  103.3990 H      12  MOL12       0.0240
   7694  H11       79.1940  115.2910  105.0900 H      12  MOL12       0.0240
   7695  H11       77.5240  114.8920  104.4970 H      12  MOL12       0.0240
   7696  H11       76.3210  111.6310  102.1810 H      12  MOL12       0.0735
   7697  H11       76.9870  110.0010  102.2960 H      12  MOL12       0.0735
   7698  H11       75.3940  111.0660  104.5550 H      12  MOL12       0.0765
   7699  H11       73.7680  109.4180  103.0690 H      12  MOL12       0.0266
   7700  H12       74.9890  109.7210  101.8370 H      12  MOL12       0.0266
   7701  H12       74.0380  111.0620  102.4620 H      12  MOL12       0.0266
   7702  H12       77.0050  104.5340  103.5270 H      12  MOL12       0.0421
   7703  H12       76.8280  103.5230  100.9220 H      12  MOL12       0.0284
   7704  H12       75.1360  103.4400  101.4060 H      12  MOL12       0.0284
   7705  H12       77.0230  102.6070  103.5270 H      12  MOL12       0.0385
   7706  H12       77.3600  101.7650  102.0120 H      12  MOL12       0.0385
   7707  H12       76.8350  105.6350  100.8170 H      12  MOL12       0.0276
   7708  H12       78.2070  105.3700  101.8780 H      12  MOL12       0.0276
   7709  H12       76.0470  107.5610  102.2250 H      12  MOL12       0.0266
   7710  H12       77.5720  107.7700  101.4900 H      12  MOL12       0.0266
   7711  H12       78.1130  108.3940  103.7730 H      12  MOL12       0.0270
   7712  H12       78.5270  106.6900  103.7610 H      12  MOL12       0.0270
   7713  H12       77.1820  107.5240  105.7400 H      12  MOL12       0.0377
   7714  H12       76.4260  106.1290  104.9730 H      12  MOL12       0.0377
   7715  H12       64.4260  107.4720  104.8320 H      12  MOL12       0.0412
   7716  H12       62.5930  105.6840  107.2410 H      12  MOL12       0.0341
   7717  H12       64.3340  105.3520  107.1510 H      12  MOL12       0.0341
   7718  H12       63.3920  105.6450  105.6430 H      12  MOL12       0.0341
   7719  H12       83.6930  104.7080  102.4810 H      12  MOL12       0.0540
   7720  H12       85.1340  103.8040  101.7800 H      12  MOL12       0.0540
   7721  H12       87.3660  105.2860  101.7840 H      12  MOL12       0.0280
   7722  H12       87.4650  104.6890  103.4540 H      12  MOL12       0.0280
   7723  H12       87.5640  106.4300  103.1210 H      12  MOL12       0.0280
   7724  H12       83.8960  107.5240  105.7670 H      12  MOL12       0.0735
   7725  H12       83.3540  108.6300  104.5420 H      12  MOL12       0.0735
   7726  H12       82.1860  107.4870  106.5850 H      12  MOL12       0.0765
   7727  H12       79.8550  108.1810  106.2900 H      12  MOL12       0.0266
   7728  H12       80.0140  108.0740  104.6190 H      12  MOL12       0.0266
   7729  H12       80.8780  109.3670  105.5760 H      12  MOL12       0.0266
   7730  H12       76.2230  100.6310  105.4750 H      12  MOL12       0.0421
   7731  H12       77.0760   98.1580  105.7210 H      12  MOL12       0.0284
   7732  H12       76.5670   99.2380  106.9510 H      12  MOL12       0.0284
   7733  H12       79.2480   98.2080  106.5550 H      12  MOL12       0.0385
   7734  H12       78.0530   97.7320  107.6850 H      12  MOL12       0.0385
   7735  H12       78.8390  101.2310  106.3880 H      12  MOL12       0.0276
   7736  H12       77.6550  102.3320  105.8260 H      12  MOL12       0.0276
   7737  H12       78.8730  101.6490  103.4130 H      12  MOL12       0.0266
   7738  H12       80.1310  101.5620  104.6390 H      12  MOL12       0.0266
   7739  H12       78.2600  103.9070  104.7670 H      12  MOL12       0.0270
   7740  H12       79.4720  103.9340  103.5000 H      12  MOL12       0.0270
   7741  H12       81.2460  103.6210  105.3660 H      12  MOL12       0.0377
   7742  H12       79.8660  103.5580  106.4740 H      12  MOL12       0.0377
   7743  H12       66.2400  115.4340  102.5730 H      12  MOL12       0.0540
   7744  H12       67.2230  114.1270  101.7680 H      12  MOL12       0.0540
   7745  H12       68.6260  118.0230  101.5410 H      12  MOL12       0.0280
   7746  H12       68.5770  117.6050  103.2710 H      12  MOL12       0.0280
   7747  H12       67.0930  117.7690  102.3920 H      12  MOL12       0.0280
   7748  H12       71.3500  113.9950  101.4610 H      12  MOL12       0.0735
   7749  H12       70.4550  113.0640  102.6970 H      12  MOL12       0.0735
   7750  H12       70.0120  112.3690   99.9970 H      12  MOL12       0.0765
   7751  H12       72.0130  110.9610   99.4920 H      12  MOL12       0.0266
   7752  H12       72.8260  111.4070  100.9640 H      12  MOL12       0.0266
   7753  H12       72.5920  112.6330   99.7670 H      12  MOL12       0.0266
   7754  H12       70.4530  105.2910  105.2670 H      12  MOL12       0.0421
   7755  H12       71.7390  102.9890  103.9320 H      12  MOL12       0.0284
   7756  H12       71.6880  103.0460  105.6850 H      12  MOL12       0.0284
   7757  H12       72.7750  105.4580  105.2770 H      12  MOL12       0.0385
   7758  H12       72.5630  105.0960  103.5970 H      12  MOL12       0.0385
   7759  H12       69.3700  104.7960  102.7460 H      12  MOL12       0.0276
   7760  H12       71.0520  104.7590  102.5510 H      12  MOL12       0.0276
   7761  H12       71.0380  106.8490  104.2630 H      12  MOL12       0.0266
   7762  H12       69.3910  106.9920  103.6560 H      12  MOL12       0.0266
   7763  H12       70.8470  106.9050  101.3880 H      12  MOL12       0.0270
   7764  H12       72.0360  107.6370  102.5000 H      12  MOL12       0.0270
   7765  H12       69.2760  108.8130  102.5240 H      12  MOL12       0.0377
   7766  H12       69.8760  108.7510  100.8980 H      12  MOL12       0.0377
   7767  H12       87.1210  125.1710  106.9720 H      12  MOL12       0.0263
   7768  H12       87.4480  124.1620  105.5770 H      12  MOL12       0.0263
   7769  H12       88.1720  123.5940  108.3650 H      12  MOL12       0.0265
   7770  H12       89.2870  123.0480  107.1010 H      12  MOL12       0.0265
   7771  H12       87.4990  121.9110  105.8930 H      12  MOL12       0.0265
   7772  H12       86.2680  122.7800  106.7620 H      12  MOL12       0.0265
   7773  H12       86.6950  121.8150  108.7910 H      12  MOL12       0.0265
   7774  H12       88.1830  121.0330  108.1130 H      12  MOL12       0.0265
   7775  H12       86.8520  119.5900  106.7390 H      12  MOL12       0.0265
   7776  H12       85.3960  120.1550  107.4820 H      12  MOL12       0.0265
   7777  H12       86.2070  119.4580  109.7580 H      12  MOL12       0.0265
   7778  H12       87.8360  119.4270  109.2180 H      12  MOL12       0.0265
   7779  H12       86.3140  117.3060  109.6620 H      12  MOL12       0.0265
   7780  H12       87.8550  117.3400  108.8550 H      12  MOL12       0.0265
   7781  H12       85.9800  117.6300  106.6830 H      12  MOL12       0.0265
   7782  H12       85.2470  116.5470  107.8360 H      12  MOL12       0.0265
   7783  H12       87.5700  115.4220  107.9050 H      12  MOL12       0.0266
   7784  H12       87.4090  115.9890  106.1650 H      12  MOL12       0.0266
   7785  H12       85.0500  115.1360  106.5780 H      12  MOL12       0.0298
   7786  H12       85.7420  114.1260  107.8680 H      12  MOL12       0.0298
   7787  H12       86.2640  112.6340  106.2500 H      12  MOL12       0.0697
   7788  H12       86.9940  113.7890  105.1240 H      12  MOL12       0.0697
   7789  H12       88.9230  126.4910  106.5760 H      12  MOL12       0.0230
   7790  H12       88.1290  126.1440  105.0800 H      12  MOL12       0.0230
   7791  H12       89.7140  125.4040  105.4240 H      12  MOL12       0.0230
   7792  H12       82.8420  113.5320  103.3130 H      12  MOL12       0.0411
   7793  H12       82.4350  115.9340  103.9160 H      12  MOL12       0.0238
   7794  H12       84.0710  115.4940  103.5920 H      12  MOL12       0.0238
   7795  H12       83.6940  115.7070  105.1930 H      12  MOL12       0.0238
   7796  H12       81.3050  114.0780  105.9200 H      12  MOL12       0.0273
   7797  H12       81.9920  112.4660  105.6840 H      12  MOL12       0.0273
   7798  H12       77.9470  111.7240  105.6630 H      12  MOL12       0.0240
   7799  H12       76.8200  113.0520  105.3770 H      12  MOL12       0.0240
   7800  H13       78.1780  113.2830  106.5170 H      12  MOL12       0.0240
   7801  O65      119.0120   54.2780  121.9430 O.2    13  MOL13      -0.2510
   7802  O65      117.9170   55.2010  123.5850 O.3    13  MOL13      -0.4806
   7803  C65      118.4310   55.2570  122.3280 C.2    13  MOL13       0.3047
   7804  C65      118.1220   56.7210  121.7700 C.3    13  MOL13       0.0448
   7805  C65      117.7480   57.3840  120.3640 C.3    13  MOL13      -0.0430
   7806  C65      116.6050   58.4890  119.9450 C.3    13  MOL13      -0.0515
   7807  C65      116.4040   58.6350  118.3130 C.3    13  MOL13      -0.0403
   7808  S65      111.1510   57.2740  117.4480 S.3    13  MOL13      -0.0928
   7809  C65      112.6440   58.4840  116.7170 C.3    13  MOL13       0.0050
   7810  C66      113.9710   59.3850  117.1450 C.3    13  MOL13      -0.0305
   7811  C66      109.6030   56.1880  130.9460 C.2    13  MOL13       0.3129
   7812  C66      108.1380   56.2640  131.5950 C.3    13  MOL13       0.0622
   7813  C66      106.9380   55.5050  131.0000 C.3    13  MOL13      -0.0370
   7814  C66      108.1030   55.6360  132.9600 C.3    13  MOL13      -0.0497
   7815  O66      110.2500   55.2000  130.7430 O.2    13  MOL13      -0.2502
   7816  O66      110.0430   57.4640  130.6410 O.3    13  MOL13      -0.4605
   7817  C66      111.3160   57.9580  130.0520 C.3    13  MOL13       0.1290
   7818  C66      111.3770   59.0510  128.9300 C.3    13  MOL13       0.1341
   7819  C66      111.0030   58.3190  127.7040 C.3    13  MOL13      -0.0244
   7820  C67      109.8190   64.1350  122.6510 C.3    13  MOL13       0.0162
   7821  C67      109.0740   63.4020  121.3910 C.3    13  MOL13      -0.0305
   7822  C67      107.7300   62.9160  120.6370 C.3    13  MOL13       0.0050
   7823  S67      106.1940   63.9320  120.2410 S.3    13  MOL13      -0.0928
   7824  C67      110.1140   64.6380  124.2380 C.3    13  MOL13      -0.0403
   7825  C67      110.1110   64.8030  125.8670 C.3    13  MOL13      -0.0515
   7826  C67      110.0900   64.2000  127.3720 C.3    13  MOL13      -0.0429
   7827  C67      110.5850   63.0380  128.3770 C.3    13  MOL13       0.0450
   7828  C67      111.4260   61.7060  128.6830 C.2    13  MOL13       0.3074
   7829  O67      110.8560   60.4560  128.6600 O.3    13  MOL13      -0.4582
   7830  O68      112.5490   61.8560  129.0350 O.2    13  MOL13      -0.2508
   7831  C68      115.3800   58.8570  116.9150 C.3    13  MOL13       0.0162
   7832  C68      101.2560   57.9060  130.0380 C.2    13  MOL13       0.3344
   7833  C68      100.0250   58.6470  130.5650 C.2    13  MOL13       0.0264
   7834  C68       99.2510   59.4150  129.7840 C.2    13  MOL13      -0.0890
   7835  C68       99.6060   58.6590  132.0110 C.3    13  MOL13      -0.0335
   7836  O68      101.8800   57.2060  130.7940 O.2    13  MOL13      -0.2453
   7837  O68      101.6440   58.0470  128.7290 O.3    13  MOL13      -0.4577
   7838  C68      102.8340   57.8700  127.8460 C.3    13  MOL13       0.1293
   7839  C68      103.7850   58.9360  127.1040 C.3    13  MOL13       0.1341
   7840  C69      104.4690   57.9260  126.1350 C.3    13  MOL13      -0.0244
   7841  C69      103.2540   63.6130  119.6840 C.3    13  MOL13       0.0162
   7842  C69      102.7720   64.8890  118.9980 C.3    13  MOL13      -0.0313
   7843  C69      101.5130   65.2700  119.7360 C.3    13  MOL13      -0.0056
   7844  S69      101.5020   66.8980  120.4480 S.3    13  MOL13      -0.1641
   7845  C69      102.0160   62.6280  120.2490 C.3    13  MOL13      -0.0403
   7846  C69      101.4760   62.0610  121.7540 C.3    13  MOL13      -0.0515
   7847  C69      101.3010   61.8160  123.4260 C.3    13  MOL13      -0.0429
   7848  C69      101.5890   61.8310  125.1220 C.3    13  MOL13       0.0450
   7849  C69      102.7310   61.6850  126.3830 C.2    13  MOL13       0.3074
   7850  O70      103.4310   60.4620  126.8370 O.3    13  MOL13      -0.4582
   7851  O70      102.9950   62.6460  127.0240 O.2    13  MOL13      -0.2508
   7852  C70      100.1890   66.7940  121.7300 C.3    13  MOL13      -0.0181
   7853  S70      104.8420   62.9760  118.9540 S.3    13  MOL13      -0.0897
   7854  C70      119.6850   55.5510  126.8100 C.2    13  MOL13       0.3344
   7855  C70      121.0130   56.0690  127.0770 C.2    13  MOL13       0.0264
   7856  C70      121.1720   57.4050  127.1610 C.2    13  MOL13      -0.0890
   7857  C70      122.0860   55.0770  127.3460 C.3    13  MOL13      -0.0335
   7858  O70      119.4410   54.3790  126.6350 O.2    13  MOL13      -0.2453
   7859  O70      118.6630   56.4270  126.8140 O.3    13  MOL13      -0.4577
   7860  C71      117.5760   56.1410  127.6630 C.3    13  MOL13       0.1293
   7861  C71      116.6320   55.1080  127.1610 C.3    13  MOL13       0.1341
   7862  C71      115.4410   55.0140  128.1060 C.3    13  MOL13      -0.0244
   7863  S71      110.8360   56.7070  119.4660 S.3    13  MOL13      -0.0897
   7864  C71      112.0090   57.3060  120.9000 C.3    13  MOL13       0.0162
   7865  C71      112.7960   58.6710  121.3190 C.3    13  MOL13      -0.0305
   7866  C71      112.8580   60.2870  121.4690 C.3    13  MOL13       0.0050
   7867  S71      112.2880   62.0400  121.7140 S.3    13  MOL13      -0.0928
   7868  C71      111.5400   56.3360  121.9760 C.3    13  MOL13      -0.0403
   7869  C71      112.4540   55.9910  123.1700 C.3    13  MOL13      -0.0515
   7870  C72      113.4260   54.8350  123.5400 C.3    13  MOL13      -0.0429
   7871  C72      114.9150   54.9050  123.9900 C.3    13  MOL13       0.0450
   7872  C72      115.4330   55.7560  125.1350 C.2    13  MOL13       0.3074
   7873  O72      116.3640   55.0060  125.7560 O.3    13  MOL13      -0.4582
   7874  O72      115.0650   56.8230  125.5000 O.2    13  MOL13      -0.2508
   7875  S72      111.5550   63.8750  121.9770 S.3    13  MOL13      -0.0897
   7876  C72       96.3340   51.3130  142.1370 C.3    13  MOL13      -0.0559
   7877  C72       97.1640   52.2430  141.2870 C.3    13  MOL13      -0.0533
   7878  C72       96.6500   53.2060  140.2120 C.3    13  MOL13      -0.0531
   7879  C72       97.9170   53.8290  139.6130 C.3    13  MOL13      -0.0531
   7880  C73       98.0950   55.2390  139.0470 C.3    13  MOL13      -0.0531
   7881  C73       99.5850   55.6600  139.1930 C.3    13  MOL13      -0.0531
   7882  C73      100.2130   55.9570  137.8410 C.3    13  MOL13      -0.0531
   7883  C73      101.5070   55.2810  137.3930 C.3    13  MOL13      -0.0530
   7884  C73      101.7500   55.8550  136.0080 C.3    13  MOL13      -0.0500
   7885  C73      102.3020   55.1500  134.7980 C.3    13  MOL13      -0.0185
   7886  C73      102.5390   56.2020  133.7720 C.3    13  MOL13       0.0925
   7887  C73       97.2890   50.6000  143.1090 C.3    13  MOL13      -0.0653
   7888  C73      104.3920   54.9840  130.9330 C.3    13  MOL13       0.0537
   7889  C73      103.2030   54.9860  131.8560 C.2    13  MOL13       0.3099
   7890  O74      103.5510   55.7850  132.8820 O.3    13  MOL13      -0.4644
   7891  O74      102.0950   54.5150  131.7890 O.2    13  MOL13      -0.2505
   7892  C74      104.7770   53.8270  129.9930 C.3    13  MOL13      -0.0523
   7893  C74      105.5910   55.5930  131.7300 C.3    13  MOL13      -0.0394
   7894  C74      107.7790   57.6900  131.8480 C.3    13  MOL13      -0.0497
   7895  O74      120.8490   67.2240   99.7670 O.2    13  MOL13      -0.2510
   7896  O74      120.5370   65.0090   99.4570 O.3    13  MOL13      -0.4806
   7897  C74      121.1500   66.0950  100.0010 C.2    13  MOL13       0.3047
   7898  C74      122.1590   65.6250  101.0200 C.3    13  MOL13       0.0448
   7899  C74      123.4570   66.4310  101.2430 C.3    13  MOL13      -0.0430
   7900  C75      123.5370   66.7190  102.7240 C.3    13  MOL13      -0.0515
   7901  C75      124.8350   67.0110  103.4580 C.3    13  MOL13      -0.0403
   7902  S75      123.4550   64.9380  107.8560 S.3    13  MOL13      -0.0928
   7903  C75      123.3080   66.4230  106.9000 C.3    13  MOL13       0.0050
   7904  C75      123.5740   66.2060  105.4510 C.3    13  MOL13      -0.0305
   7905  C75      112.5220   65.2190  113.0720 C.2    13  MOL13       0.3129
   7906  C75      111.6660   65.9480  112.0210 C.3    13  MOL13       0.0622
   7907  C75      112.4940   66.0360  110.7580 C.3    13  MOL13      -0.0370
   7908  C75      110.6240   64.8980  111.6370 C.3    13  MOL13      -0.0497
   7909  O75      112.1120   64.1940  113.5370 O.2    13  MOL13      -0.2502
   7910  O76      113.8050   65.7150  113.3270 O.3    13  MOL13      -0.4605
   7911  C76      114.0560   67.0360  113.8420 C.3    13  MOL13       0.1290
   7912  C76      115.3970   67.4270  114.4760 C.3    13  MOL13       0.1341
   7913  C76      116.2600   66.7790  115.5510 C.3    13  MOL13      -0.0244
   7914  C76      120.0210   63.5070  113.6710 C.3    13  MOL13       0.0162
   7915  C76      120.2790   62.7800  115.1720 C.3    13  MOL13      -0.0305
   7916  C76      120.4290   61.8240  116.5200 C.3    13  MOL13       0.0050
   7917  S76      119.9910   60.1660  117.2140 S.3    13  MOL13      -0.0928
   7918  C76      119.0860   64.7100  113.7220 C.3    13  MOL13      -0.0403
   7919  C76      118.2790   64.9960  112.3930 C.3    13  MOL13      -0.0515
   7920  C77      118.0250   66.3910  111.7300 C.3    13  MOL13      -0.0429
   7921  C77      118.2300   67.7930  112.3390 C.3    13  MOL13       0.0450
   7922  C77      117.2970   68.3110  113.3170 C.2    13  MOL13       0.3074
   7923  O77      116.3280   67.3920  113.3990 O.3    13  MOL13      -0.4582
   7924  O77      117.3630   69.3390  113.9510 O.2    13  MOL13      -0.2508
   7925  S77      126.2890   66.2810  105.7020 S.3    13  MOL13      -0.0897
   7926  C77      124.7670   67.0020  104.9850 C.3    13  MOL13       0.0162
   7927  C77      123.1410   53.2840  121.1950 C.2    13  MOL13       0.3344
   7928  C77      123.5220   52.2720  122.1410 C.2    13  MOL13       0.0264
   7929  C77      123.3330   52.4870  123.4510 C.2    13  MOL13      -0.0890
   7930  C78      124.1470   51.0900  121.5220 C.3    13  MOL13      -0.0335
   7931  O78      123.6250   53.3500  120.0860 O.2    13  MOL13      -0.2453
   7932  O78      122.1910   54.1430  121.6040 O.3    13  MOL13      -0.4577
   7933  C78      122.0420   55.3040  120.8380 C.3    13  MOL13       0.1293
   7934  C78      120.8200   55.4880  120.0430 C.3    13  MOL13       0.1341
   7935  C78      120.8680   57.0590  119.7470 C.3    13  MOL13      -0.0244
   7936  C78      118.3180   58.0500  115.2810 C.3    13  MOL13       0.0162
   7937  C78      117.7430   58.0410  113.8380 C.3    13  MOL13      -0.0305
   7938  C78      116.8020   56.9570  113.4090 C.3    13  MOL13       0.0050
   7939  S78      115.1450   57.5420  113.5770 S.3    13  MOL13      -0.0928
   7940  C79      119.5430   57.1890  115.4230 C.3    13  MOL13      -0.0403
   7941  C79      119.0680   55.6780  115.2890 C.3    13  MOL13      -0.0515
   7942  C79      119.6940   54.2050  115.6380 C.3    13  MOL13      -0.0429
   7943  C79      119.9370   53.2240  116.9570 C.3    13  MOL13       0.0450
   7944  C79      120.7320   53.3910  118.3550 C.2    13  MOL13       0.3074
   7945  O79      120.2630   54.4180  119.1460 O.3    13  MOL13      -0.4582
   7946  O79      121.6850   52.7040  118.5850 O.2    13  MOL13      -0.2508
   7947  S79      115.2990   57.5220  115.6150 S.3    13  MOL13      -0.0897
   7948  S79      118.2290   59.5440  116.4060 S.3    13  MOL13      -0.0897
   7949  C79      121.6720   68.6990  104.4140 C.2    13  MOL13       0.3344
   7950  C80      122.6980   69.3750  103.6080 C.2    13  MOL13       0.0264
   7951  C80      123.6420   69.8970  104.3620 C.2    13  MOL13      -0.0890
   7952  C80      122.8270   69.4010  102.1070 C.3    13  MOL13      -0.0335
   7953  O80      120.8470   67.9950  103.8940 O.2    13  MOL13      -0.2453
   7954  O80      121.6030   68.8470  105.7860 O.3    13  MOL13      -0.4577
   7955  C80      120.2730   68.6270  106.2390 C.3    13  MOL13       0.1293
   7956  C80      119.9640   67.3210  106.8200 C.3    13  MOL13       0.1341
   7957  C80      118.6410   67.4540  107.6050 C.3    13  MOL13      -0.0244
   7958  S80      125.1970   64.0390  107.2540 S.3    13  MOL13      -0.0897
   7959  C80      124.7330   62.4910  108.0710 C.3    13  MOL13       0.0162
   7960  C81      124.8490   62.8330  109.5840 C.3    13  MOL13      -0.0305
   7961  C81      123.7640   62.5630  110.6120 C.3    13  MOL13       0.0050
   7962  S81      122.6920   64.0470  110.8670 S.3    13  MOL13      -0.0928
   7963  C81      123.3900   62.0390  107.4920 C.3    13  MOL13      -0.0403
   7964  C81      123.0730   62.2620  105.9880 C.3    13  MOL13      -0.0515
   7965  C81      121.6500   62.8180  105.5890 C.3    13  MOL13      -0.0429
   7966  C81      120.6220   63.9680  105.3340 C.3    13  MOL13       0.0450
   7967  C81      120.1170   65.0320  106.2740 C.2    13  MOL13       0.3074
   7968  O81      120.3110   66.2970  105.8510 O.3    13  MOL13      -0.4582
   7969  O81      119.4130   64.8060  107.2100 O.2    13  MOL13      -0.2508
   7970  S82      121.1130   64.2570  112.2300 S.3    13  MOL13      -0.0897
   7971  C82      105.2430   75.2330  100.8060 C.3    13  MOL13      -0.0559
   7972  C82      105.4450   73.7840  101.1540 C.3    13  MOL13      -0.0533
   7973  C82      106.9420   73.5280  101.2720 C.3    13  MOL13      -0.0531
   7974  C82      107.3050   73.3700  102.7480 C.3    13  MOL13      -0.0531
   7975  C82      108.7860   73.2170  103.1850 C.3    13  MOL13      -0.0531
   7976  C82      108.7100   72.1740  104.2580 C.3    13  MOL13      -0.0531
   7977  C82      109.7000   71.2550  104.9300 C.3    13  MOL13      -0.0531
   7978  C82      111.0770   71.4090  105.4990 C.3    13  MOL13      -0.0530
   7979  C82      112.0780   70.5330  104.7970 C.3    13  MOL13      -0.0500
   7980  C83      111.6730   69.0630  104.6620 C.3    13  MOL13      -0.0185
   7981  C83      110.6880   68.4950  105.6750 C.3    13  MOL13       0.0925
   7982  C83      103.8260   75.6620  100.7380 C.3    13  MOL13      -0.0653
   7983  C83      111.4910   67.5490  109.0710 C.3    13  MOL13       0.0537
   7984  C83      110.5850   67.6900  107.8960 C.2    13  MOL13       0.3099
   7985  O83      111.2570   68.4070  106.9710 O.3    13  MOL13      -0.4644
   7986  O83      109.4620   67.2560  107.7600 O.2    13  MOL13      -0.2505
   7987  C83      112.8990   68.1260  108.9240 C.3    13  MOL13      -0.0523
   7988  C83      111.7220   66.1030  109.4360 C.3    13  MOL13      -0.0394
   7989  C83      111.0650   67.2300  112.5930 C.3    13  MOL13      -0.0497
   7990  O84      145.7320   55.3740  106.4550 O.2    13  MOL13      -0.2510
   7991  O84      143.6630   54.7690  105.8180 O.3    13  MOL13      -0.4806
   7992  C84      144.6670   55.6760  106.0220 C.2    13  MOL13       0.3047
   7993  C84      144.1860   57.0800  105.6620 C.3    13  MOL13       0.0448
   7994  C84      145.2820   58.2050  105.7580 C.3    13  MOL13      -0.0430
   7995  C84      145.1430   59.8120  105.5630 C.3    13  MOL13      -0.0516
   7996  C84      144.9620   61.4160  105.3460 C.3    13  MOL13      -0.0411
   7997  S84      140.1500   63.1700  103.8400 S.3    13  MOL13      -0.0928
   7998  C84      141.8230   63.9080  103.8150 C.3    13  MOL13       0.0049
   7999  C84      142.5500   62.8610  104.6940 C.3    13  MOL13      -0.0313
   8000  C85      133.5160   56.5900  112.1050 C.2    13  MOL13       0.3129
   8001  C85      133.2660   57.2440  113.4400 C.3    13  MOL13       0.0622
   8002  C85      131.8590   57.8150  113.7740 C.3    13  MOL13      -0.0370
   8003  C85      134.0240   56.4240  114.4170 C.3    13  MOL13      -0.0497
   8004  O85      133.9940   55.4970  111.9170 O.2    13  MOL13      -0.2502
   8005  O85      133.2640   57.5100  111.1310 O.3    13  MOL13      -0.4605
   8006  C85      134.0620   57.3410  109.9730 C.3    13  MOL13       0.1290
   8007  C85      134.9370   58.4720  109.6080 C.3    13  MOL13       0.1341
   8008  C85      135.7480   57.8930  108.4700 C.3    13  MOL13      -0.0244
   8009  C85      131.8900   60.3210  105.0310 C.3    13  MOL13       0.0162
   8010  C86      131.5270   60.2720  103.5490 C.3    13  MOL13      -0.0305
   8011  C86      130.7400   61.5140  103.1890 C.3    13  MOL13       0.0050
   8012  S86      131.3630   62.6930  102.0150 S.3    13  MOL13      -0.0928
   8013  C86      131.4990   59.0350  105.6790 C.3    13  MOL13      -0.0403
   8014  C86      132.2060   58.6660  106.9720 C.3    13  MOL13      -0.0515
   8015  C86      131.8680   59.6700  108.0770 C.3    13  MOL13      -0.0429
   8016  C86      132.7900   60.8880  108.1270 C.3    13  MOL13       0.0450
   8017  C86      134.1770   60.3720  108.2240 C.2    13  MOL13       0.3074
   8018  O86      134.0300   59.4860  109.2190 O.3    13  MOL13      -0.4582
   8019  O86      135.1830   60.6400  107.6160 O.2    13  MOL13      -0.2508
   8020  S87      145.0820   64.0800  104.5210 S.3    13  MOL13      -0.1607
   8021  C87      144.0850   62.5750  104.6510 C.3    13  MOL13       0.0058
   8022  C87      144.5240   64.8200  103.0080 C.3    13  MOL13      -0.0178
   8023  C87      124.9110   59.2760  110.3600 C.2    13  MOL13       0.3344
   8024  C87      123.8600   59.0070  109.3730 C.2    13  MOL13       0.0264
   8025  C87      124.1890   59.0650  108.0770 C.2    13  MOL13      -0.0890
   8026  C87      122.4630   58.7200  109.8520 C.3    13  MOL13      -0.0335
   8027  O87      124.6210   59.3090  111.5350 O.2    13  MOL13      -0.2453
   8028  O87      126.2080   59.5390  109.9700 O.3    13  MOL13      -0.4577
   8029  C87      127.0710   59.9290  111.0490 C.3    13  MOL13       0.1293
   8030  C88      128.2580   60.7810  110.6420 C.3    13  MOL13       0.1341
   8031  C88      129.7550   60.3910  110.8660 C.3    13  MOL13      -0.0244
   8032  C88      129.6220   64.7140  103.3260 C.3    13  MOL13       0.0162
   8033  C88      129.1360   66.1430  102.9460 C.3    13  MOL13      -0.0305
   8034  C88      128.0310   67.0240  103.4920 C.3    13  MOL13       0.0050
   8035  S88      127.8310   67.4880  105.2310 S.3    13  MOL13      -0.0928
   8036  C88      129.2150   64.1990  104.7210 C.3    13  MOL13      -0.0403
   8037  C88      128.4620   62.8870  104.9100 C.3    13  MOL13      -0.0515
   8038  C88      128.9950   62.1470  106.1280 C.3    13  MOL13      -0.0429
   8039  C88      128.3750   62.6720  107.3960 C.3    13  MOL13       0.0450
   8040  C89      128.9860   61.9490  108.5610 C.2    13  MOL13       0.3074
   8041  O89      128.0070   61.3930  109.3400 O.3    13  MOL13      -0.4582
   8042  O89      130.1720   61.9150  108.7470 O.2    13  MOL13      -0.2508
   8043  S89      129.5320   63.5470  101.9330 S.3    13  MOL13      -0.0897
   8044  C89      142.4230   54.6730  109.6790 C.2    13  MOL13       0.3344
   8045  C89      143.7950   55.0060  110.0350 C.2    13  MOL13       0.0264
   8046  C89      144.4070   55.7210  109.1010 C.2    13  MOL13      -0.0890
   8047  C89      144.4440   54.6100  111.3170 C.3    13  MOL13      -0.0335
   8048  O89      141.7590   53.8870  110.3190 O.2    13  MOL13      -0.2453
   8049  O89      141.8800   55.3220  108.5860 O.3    13  MOL13      -0.4577
   8050  C90      140.5600   55.8370  108.7640 C.3    13  MOL13       0.1293
   8051  C90      139.8340   55.7230  107.4710 C.3    13  MOL13       0.1341
   8052  C90      138.3600   55.2330  107.4830 C.3    13  MOL13      -0.0244
   8053  S90      138.7210   63.8190  102.4990 S.3    13  MOL13      -0.0897
   8054  C90      137.4980   62.8920  103.4710 C.3    13  MOL13       0.0162
   8055  C90      136.0250   63.2930  103.4460 C.3    13  MOL13      -0.0305
   8056  C90      135.3650   62.4740  104.5330 C.3    13  MOL13       0.0050
   8057  S90      133.5780   62.5380  104.5600 S.3    13  MOL13      -0.0928
   8058  C90      137.6790   61.3980  103.2530 C.3    13  MOL13      -0.0403
   8059  C90      138.2080   60.7600  104.5450 C.3    13  MOL13      -0.0515
   8060  C91      137.9080   59.3010  104.8430 C.3    13  MOL13      -0.0429
   8061  C91      139.0850   58.4660  105.3430 C.3    13  MOL13       0.0450
   8062  C91      139.1130   57.7740  106.6780 C.2    13  MOL13       0.3074
   8063  O91      140.0230   56.7850  106.5320 O.3    13  MOL13      -0.4582
   8064  O91      138.5100   57.9470  107.7000 O.2    13  MOL13      -0.2508
   8065  S91      133.6140   60.6330  105.2300 S.3    13  MOL13      -0.0897
   8066  C91      129.6690   51.9400  126.6390 C.3    13  MOL13      -0.0559
   8067  C91      128.9330   53.2170  126.2930 C.3    13  MOL13      -0.0533
   8068  C91      129.3990   53.5350  124.8690 C.3    13  MOL13      -0.0531
   8069  C91      129.1900   54.9750  124.5950 C.3    13  MOL13      -0.0531
   8070  C92      129.2770   55.5030  123.2000 C.3    13  MOL13      -0.0531
   8071  C92      128.7440   56.9300  123.3230 C.3    13  MOL13      -0.0531
   8072  C92      128.1290   57.5940  122.1000 C.3    13  MOL13      -0.0531
   8073  C92      128.3080   56.9870  120.7050 C.3    13  MOL13      -0.0530
   8074  C92      127.1120   57.1550  119.8140 C.3    13  MOL13      -0.0500
   8075  C92      127.5270   57.6800  118.4780 C.3    13  MOL13      -0.0185
   8076  C92      126.8240   57.2220  117.2300 C.3    13  MOL13       0.0925
   8077  C92      129.2530   50.7750  127.4960 C.3    13  MOL13      -0.0653
   8078  C92      129.7910   56.3040  115.3470 C.3    13  MOL13       0.0537
   8079  C92      128.4190   56.8910  115.3590 C.2    13  MOL13       0.3099
   8080  O93      127.8920   56.5860  116.5470 O.3    13  MOL13      -0.4644
   8081  O93      127.8840   57.5000  114.4730 O.2    13  MOL13      -0.2505
   8082  C93      130.0030   55.4360  116.6160 C.3    13  MOL13      -0.0523
   8083  C93      130.8440   57.4270  114.9020 C.3    13  MOL13      -0.0394
   8084  C93      134.0540   58.5220  113.2790 C.3    13  MOL13      -0.0497
   8085 5H93      117.5950   56.0610  123.8570 H      13  MOL13       0.2951
   8086 6H93      119.0830   57.1370  122.0350 H      13  MOL13       0.0377
   8087 7H93      117.4420   57.0050  122.5430 H      13  MOL13       0.0377
   8088 8H93      117.7190   56.5810  119.6650 H      13  MOL13       0.0270
   8089 9H93      118.6410   57.9580  120.0660 H      13  MOL13       0.0270
   8090 0H94      117.1670   59.4200  120.1510 H      13  MOL13       0.0266
   8091 1H94      115.7510   58.6930  120.5790 H      13  MOL13       0.0266
   8092 2H94      117.3270   58.1610  118.0010 H      13  MOL13       0.0276
   8093 3H94      116.5700   59.7320  118.3570 H      13  MOL13       0.0276
   8094 4H94      111.9860   59.1850  116.2210 H      13  MOL13       0.0385
   8095 5H94      113.0010   57.8800  115.9100 H      13  MOL13       0.0385
   8096 6H94      114.1470   59.9450  118.0800 H      13  MOL13       0.0284
   8097 7H94      113.8690   60.1830  116.4220 H      13  MOL13       0.0284
   8098 8H94      107.3150   54.4960  130.9250 H      13  MOL13       0.0276
   8099 9H94      106.5630   55.7300  130.0180 H      13  MOL13       0.0276
   8100 0H95      109.0510   55.3100  133.2970 H      13  MOL13       0.0240
   8101 1H95      107.4940   54.7530  133.0680 H      13  MOL13       0.0240
   8102 2H95      107.7130   56.3370  133.6860 H      13  MOL13       0.0240
   8103 3H95      112.0100   58.2590  130.8420 H      13  MOL13       0.0735
   8104 4H95      111.8240   57.0980  129.5760 H      13  MOL13       0.0735
   8105 5H95      112.4350   59.1030  128.7990 H      13  MOL13       0.0765
   8106 6H95      111.1510   59.0860  126.9710 H      13  MOL13       0.0266
   8107 7H95      109.9950   57.9840  127.5280 H      13  MOL13       0.0266
   8108 8H95      111.6330   57.4420  127.6680 H      13  MOL13       0.0266
   8109 9H95      109.9010   65.1700  122.2560 H      13  MOL13       0.0421
   8110 0H96      109.6170   62.4430  121.2610 H      13  MOL13       0.0284
   8111 1H96      109.5580   64.0350  120.6340 H      13  MOL13       0.0284
   8112 2H96      107.4190   61.9180  120.9600 H      13  MOL13       0.0385
   8113 3H96      108.2390   62.6720  119.7160 H      13  MOL13       0.0385
   8114 4H96      111.1000   64.2230  124.2150 H      13  MOL13       0.0276
   8115 5H96      110.3730   65.6830  124.0220 H      13  MOL13       0.0276
   8116 6H96      109.3070   65.5410  126.0610 H      13  MOL13       0.0266
   8117 7H96      111.0350   65.4050  125.8790 H      13  MOL13       0.0266
   8118 8H96      109.0280   64.3110  127.6820 H      13  MOL13       0.0270
   8119 9H96      110.5480   65.0740  127.8720 H      13  MOL13       0.0270
   8120 0H97      110.0040   63.2950  129.2780 H      13  MOL13       0.0377
   8121 1H97      111.5160   63.5960  128.5720 H      13  MOL13       0.0377
   8122 2H97      115.8470   59.7660  116.5110 H      13  MOL13       0.0421
   8123 3H97       98.4460   60.0150  130.2050 H      13  MOL13       0.0540
   8124 4H97       99.4550   59.6140  128.7380 H      13  MOL13       0.0540
   8125 5H97       98.5560   58.3650  132.1150 H      13  MOL13       0.0280
   8126 6H97       99.6070   59.6820  132.3860 H      13  MOL13       0.0280
   8127 7H97      100.2820   58.0740  132.6380 H      13  MOL13       0.0280
   8128 8H97      103.4940   57.1260  128.2910 H      13  MOL13       0.0735
   8129 9H97      102.3360   57.4080  126.9860 H      13  MOL13       0.0735
   8130 0H98      104.6000   59.2400  127.7040 H      13  MOL13       0.0765
   8131 1H98      104.7400   57.0620  126.7680 H      13  MOL13       0.0266
   8132 2H98      105.4230   58.2050  125.6860 H      13  MOL13       0.0266
   8133 3H98      103.8390   57.5110  125.3380 H      13  MOL13       0.0266
   8134 4H98      103.7450   64.2280  120.4160 H      13  MOL13       0.0421
   8135 5H98      102.5540   64.7400  117.9560 H      13  MOL13       0.0284
   8136 6H98      103.5440   65.6750  119.0790 H      13  MOL13       0.0284
   8137 7H98      101.4280   64.6970  120.6610 H      13  MOL13       0.0377
   8138 8H98      100.7190   65.0060  119.0390 H      13  MOL13       0.0377
   8139 9H98      101.0810   63.0420  119.8330 H      13  MOL13       0.0276
   8140 0H99      102.0140   61.6560  119.7530 H      13  MOL13       0.0276
   8141 1H99      101.9920   61.1040  121.6370 H      13  MOL13       0.0266
   8142 2H99      100.4340   61.7760  121.4930 H      13  MOL13       0.0266
   8143 3H99      101.1500   60.7220  123.2870 H      13  MOL13       0.0270
   8144 4H99      100.2550   61.9640  123.3970 H      13  MOL13       0.0270
   8145 5H99      100.6620   61.4090  125.4330 H      13  MOL13       0.0377
   8146 6H99      101.5280   62.8560  125.4230 H      13  MOL13       0.0377
   8147 7H99       99.2300   67.2760  121.4920 H      13  MOL13       0.0340
   8148 8H99      100.4960   67.3070  122.6330 H      13  MOL13       0.0340
   8149 9H99      100.0110   65.7670  122.0280 H      13  MOL13       0.0340
   8150  H10      122.1350   57.8630  127.3540 H      13  MOL13       0.0540
   8151  H10      120.3380   58.0940  127.0810 H      13  MOL13       0.0540
   8152  H10      122.3840   54.5970  126.4150 H      13  MOL13       0.0280
   8153  H10      121.7970   54.2880  128.0510 H      13  MOL13       0.0280
   8154  H10      122.9330   55.5970  127.8030 H      13  MOL13       0.0280
   8155  H10      117.9330   55.7690  128.6280 H      13  MOL13       0.0735
   8156  H10      117.1470   57.1120  127.9120 H      13  MOL13       0.0735
   8157  H10      117.1860   54.1830  127.3000 H      13  MOL13       0.0765
   8158  H10      114.6400   54.3570  127.7730 H      13  MOL13       0.0266
   8159  H10      114.9940   55.9860  128.3310 H      13  MOL13       0.0266
   8160  H10      115.8190   54.5990  129.0390 H      13  MOL13       0.0266
   8161  H10      112.9320   56.7870  120.8910 H      13  MOL13       0.0421
   8162  H10      112.9770   58.3360  122.3200 H      13  MOL13       0.0284
   8163  H10      113.7620   58.5690  120.8060 H      13  MOL13       0.0284
   8164  H10      113.5030   60.6230  120.6470 H      13  MOL13       0.0385
   8165  H10      113.7020   60.4960  122.1400 H      13  MOL13       0.0385
   8166  H10      111.4300   55.4520  121.4150 H      13  MOL13       0.0276
   8167  H10      110.4970   56.5000  122.2670 H      13  MOL13       0.0276
   8168  H10      111.6730   55.8560  123.8900 H      13  MOL13       0.0266
   8169  H10      112.9860   56.8710  123.4090 H      13  MOL13       0.0266
   8170  H10      113.4080   54.0000  122.8470 H      13  MOL13       0.0270
   8171  H10      112.9420   54.4020  124.4140 H      13  MOL13       0.0270
   8172  H10      115.6950   54.8990  123.2390 H      13  MOL13       0.0377
   8173  H10      115.1250   53.9230  124.3590 H      13  MOL13       0.0377
   8174  H10       95.8680   50.5830  141.4890 H      13  MOL13       0.0263
   8175  H10       95.5000   51.8060  142.6310 H      13  MOL13       0.0263
   8176  H10       97.8140   51.5470  140.7850 H      13  MOL13       0.0265
   8177  H10       97.7960   52.8210  141.9730 H      13  MOL13       0.0265
   8178  H10       95.9900   53.9480  140.6420 H      13  MOL13       0.0265
   8179  H10       96.0700   52.6910  139.4320 H      13  MOL13       0.0265
   8180  H10       98.1990   53.1480  138.8150 H      13  MOL13       0.0265
   8181  H10       98.6900   53.7460  140.3830 H      13  MOL13       0.0265
   8182  H10       97.4940   55.9950  139.5400 H      13  MOL13       0.0265
   8183  H10       97.7530   55.2750  137.9990 H      13  MOL13       0.0265
   8184  H10      100.1760   54.9200  139.7520 H      13  MOL13       0.0265
   8185  H10       99.6460   56.5700  139.8040 H      13  MOL13       0.0265
   8186  H10      100.3640   57.0420  137.7730 H      13  MOL13       0.0265
   8187  H10       99.4740   55.6980  137.0680 H      13  MOL13       0.0265
   8188  H10      101.4070   54.2070  137.3150 H      13  MOL13       0.0265
   8189  H10      102.3420   55.4640  138.0840 H      13  MOL13       0.0265
   8190  H10      102.3370   56.7550  136.1310 H      13  MOL13       0.0266
   8191  H10      100.7810   56.1930  135.6430 H      13  MOL13       0.0266
   8192  H10      101.5860   54.4450  134.3900 H      13  MOL13       0.0298
   8193  H10      103.2700   54.6550  134.8990 H      13  MOL13       0.0298
   8194  H10      102.9720   57.0410  134.2980 H      13  MOL13       0.0697
   8195  H10      101.6440   56.5460  133.2450 H      13  MOL13       0.0697
   8196  H10       97.9290   51.3050  143.6450 H      13  MOL13       0.0230
   8197  H10       97.9430   49.9050  142.5750 H      13  MOL13       0.0230
   8198  H10       96.7920   50.0090  143.8780 H      13  MOL13       0.0230
   8199  H10      104.0030   55.7220  130.2230 H      13  MOL13       0.0411
   8200  H10      104.4060   52.8580  130.2910 H      13  MOL13       0.0238
   8201  H10      105.8560   53.7200  129.8750 H      13  MOL13       0.0238
   8202  H10      104.4610   54.0180  128.9640 H      13  MOL13       0.0238
   8203  H10      105.6260   55.1230  132.7040 H      13  MOL13       0.0273
   8204  H10      105.3260   56.6280  131.9520 H      13  MOL13       0.0273
   8205  H10      106.7090   57.7890  132.0050 H      13  MOL13       0.0240
   8206  H10      108.0440   58.3490  131.0430 H      13  MOL13       0.0240
   8207  H10      108.2860   58.0110  132.7390 H      13  MOL13       0.0240
   8208  H10      120.9590   64.2090   99.7760 H      13  MOL13       0.2951
   8209  H10      122.4180   64.5950  100.8010 H      13  MOL13       0.0377
   8210  H10      121.5370   65.6450  101.9240 H      13  MOL13       0.0377
   8211  H10      123.5130   67.3540  100.6500 H      13  MOL13       0.0270
   8212  H10      124.3060   65.8150  100.9460 H      13  MOL13       0.0270
   8213  H10      123.2290   65.8440  103.2510 H      13  MOL13       0.0266
   8214  H10      122.6860   67.3280  102.9160 H      13  MOL13       0.0266
   8215  H10      125.4180   67.8620  103.1290 H      13  MOL13       0.0276
   8216  H10      125.3820   66.1060  103.2460 H      13  MOL13       0.0276
   8217  H10      123.8190   67.3090  107.2750 H      13  MOL13       0.0385
   8218  H10      122.2500   66.6190  106.9880 H      13  MOL13       0.0385
   8219  H10      122.6590   66.5290  104.9400 H      13  MOL13       0.0284
   8220  H10      123.7100   65.1510  105.2090 H      13  MOL13       0.0284
   8221  H10      113.1250   65.1420  110.7170 H      13  MOL13       0.0276
   8222  H10      113.1450   66.8890  110.8410 H      13  MOL13       0.0276
   8223  H10      111.1720   64.1300  111.0770 H      13  MOL13       0.0240
   8224  H10      109.8040   65.2180  110.9860 H      13  MOL13       0.0240
   8225  H10      110.1830   64.4410  112.5220 H      13  MOL13       0.0240
   8226  H10      113.2230   67.3660  114.4670 H      13  MOL13       0.0735
   8227  H10      114.0460   67.7060  112.9920 H      13  MOL13       0.0735
   8228  H10      115.2320   68.4620  114.8200 H      13  MOL13       0.0765
   8229  H10      117.0250   67.5240  115.8200 H      13  MOL13       0.0266
   8230  H10      116.7960   65.9260  115.1240 H      13  MOL13       0.0266
   8231  H10      115.8050   66.4550  116.4750 H      13  MOL13       0.0266
   8232  H10      119.5700   62.8110  113.0080 H      13  MOL13       0.0421
   8233  H10      120.5820   63.5700  115.8230 H      13  MOL13       0.0284
   8234  H10      120.9530   62.0480  114.7710 H      13  MOL13       0.0284
   8235  H10      120.3930   62.4970  117.3770 H      13  MOL13       0.0385
   8236  H10      121.5300   61.7160  116.5360 H      13  MOL13       0.0385
   8237  H10      119.7120   65.5510  113.9330 H      13  MOL13       0.0276
   8238  H10      118.5040   64.6060  114.6380 H      13  MOL13       0.0276
   8239  H10      117.3100   64.4890  112.3190 H      13  MOL13       0.0266
   8240  H10      118.7660   64.4630  111.5840 H      13  MOL13       0.0266
   8241  H10      117.0370   66.2990  111.2670 H      13  MOL13       0.0270
   8242  H10      118.6560   66.4030  110.8380 H      13  MOL13       0.0270
   8243  H10      118.3260   68.5030  111.5130 H      13  MOL13       0.0377
   8244  H10      119.1560   67.8390  112.8970 H      13  MOL13       0.0377
   8245  H10      124.6620   68.0090  105.3730 H      13  MOL13       0.0421
   8246  H10      123.0620   53.4640  123.8250 H      13  MOL13       0.0540
   8247  H10      123.4990   51.7950  124.2640 H      13  MOL13       0.0540
   8248  H10      123.6320   50.1360  121.6960 H      13  MOL13       0.0280
   8249  H10      125.1070   51.1190  121.9690 H      13  MOL13       0.0280
   8250  H11      124.2870   51.2300  120.4440 H      13  MOL13       0.0280
   8251  H11      122.0560   56.1450  121.5490 H      13  MOL13       0.0735
   8252  H11      122.9070   55.4200  120.1970 H      13  MOL13       0.0735
   8253  H11      120.0130   55.5530  120.7380 H      13  MOL13       0.0765
   8254  H11      120.5780   57.5350  120.6920 H      13  MOL13       0.0266
   8255  H11      120.2430   57.5140  118.9760 H      13  MOL13       0.0266
   8256  H11      121.8490   57.5000  119.5520 H      13  MOL13       0.0266
   8257  H11      117.6140   57.4910  115.8330 H      13  MOL13       0.0421
   8258  H11      118.6090   57.9410  113.2030 H      13  MOL13       0.0284
   8259  H11      117.2430   58.9470  113.5250 H      13  MOL13       0.0284
   8260  H11      116.8510   56.0960  114.0520 H      13  MOL13       0.0385
   8261  H11      116.9530   56.7270  112.3450 H      13  MOL13       0.0385
   8262  H11      120.0730   57.5910  116.2990 H      13  MOL13       0.0276
   8263  H11      120.3150   57.3350  114.6860 H      13  MOL13       0.0276
   8264  H11      118.9720   55.7080  114.2300 H      13  MOL13       0.0266
   8265  H11      118.0140   55.6660  115.5680 H      13  MOL13       0.0266
   8266  H11      120.6560   54.2310  115.1240 H      13  MOL13       0.0270
   8267  H11      119.1410   53.5030  115.0120 H      13  MOL13       0.0270
   8268  H11      120.5430   52.4470  116.4770 H      13  MOL13       0.0377
   8269  H11      118.9940   52.7030  117.1810 H      13  MOL13       0.0377
   8270  H11      124.5190   70.3550  103.9400 H      13  MOL13       0.0540
   8271  H11      123.5730   69.7130  105.4260 H      13  MOL13       0.0540
   8272  H11      122.1700   68.7060  101.5710 H      13  MOL13       0.0280
   8273  H11      123.8520   69.1150  101.8490 H      13  MOL13       0.0280
   8274  H11      122.6550   70.4060  101.7390 H      13  MOL13       0.0280
   8275  H11      120.0420   69.3710  106.9640 H      13  MOL13       0.0735
   8276  H11      119.5380   68.8940  105.4760 H      13  MOL13       0.0735
   8277  H11      120.6170   67.1440  107.6440 H      13  MOL13       0.0765
   8278  H11      118.8830   67.8240  108.6140 H      13  MOL13       0.0266
   8279  H11      118.1570   66.5060  107.8270 H      13  MOL13       0.0266
   8280  H11      117.9420   68.1940  107.1940 H      13  MOL13       0.0266
   8281  H11      125.5210   61.7570  107.8680 H      13  MOL13       0.0421
   8282  H11      125.7430   62.2920  109.9400 H      13  MOL13       0.0284
   8283  H11      125.1210   63.8820  109.7580 H      13  MOL13       0.0284
   8284  H11      124.4070   62.4070  111.4880 H      13  MOL13       0.0385
   8285  H11      123.2300   61.6420  110.3590 H      13  MOL13       0.0385
   8286  H11      122.7660   62.7250  107.9910 H      13  MOL13       0.0276
   8287  H11      123.0440   61.0680  107.8550 H      13  MOL13       0.0276
   8288  H11      123.0040   61.2520  105.5410 H      13  MOL13       0.0266
   8289  H11      123.9450   62.7190  105.5200 H      13  MOL13       0.0266
   8290  H11      121.1210   62.4180  106.4350 H      13  MOL13       0.0270
   8291  H11      121.3310   62.1430  104.7860 H      13  MOL13       0.0270
   8292  H11      119.7490   63.3090  105.3770 H      13  MOL13       0.0377
   8293  H11      120.4880   64.3760  104.3310 H      13  MOL13       0.0377
   8294  H11      105.7650   75.5070   99.8850 H      13  MOL13       0.0263
   8295  H11      105.6340   75.8350  101.6090 H      13  MOL13       0.0263
   8296  H11      104.9670   73.1340  100.4100 H      13  MOL13       0.0265
   8297  H11      104.9340   73.6000  102.1140 H      13  MOL13       0.0265
   8298  H11      107.4530   74.3660  100.8300 H      13  MOL13       0.0265
   8299  H11      107.3050   72.7300  100.6180 H      13  MOL13       0.0265
   8300  H11      106.7130   72.5210  103.1040 H      13  MOL13       0.0265
   8301  H11      106.8380   74.1890  103.2980 H      13  MOL13       0.0265
   8302  H11      109.2100   74.0800  103.6600 H      13  MOL13       0.0265
   8303  H11      109.4730   73.1090  102.3480 H      13  MOL13       0.0265
   8304  H11      108.0930   71.4040  103.8180 H      13  MOL13       0.0265
   8305  H11      108.0850   72.6360  105.0340 H      13  MOL13       0.0265
   8306  H11      109.8840   70.4540  104.2290 H      13  MOL13       0.0265
   8307  H11      109.0450   70.7930  105.6780 H      13  MOL13       0.0265
   8308  H11      111.0820   70.8640  106.4110 H      13  MOL13       0.0265
   8309  H11      111.4110   72.3940  105.7780 H      13  MOL13       0.0265
   8310  H11      112.9880   70.6050  105.3800 H      13  MOL13       0.0266
   8311  H11      112.2130   70.9320  103.8080 H      13  MOL13       0.0266
   8312  H11      112.5530   68.4060  104.6730 H      13  MOL13       0.0298
   8313  H11      111.2730   68.9530  103.6470 H      13  MOL13       0.0298
   8314  H11      110.4660   67.5100  105.3170 H      13  MOL13       0.0697
   8315  H11      109.7070   68.9660  105.7470 H      13  MOL13       0.0697
   8316  H11      103.8320   76.6600  100.3000 H      13  MOL13       0.0230
   8317  H11      103.4240   75.7180  101.7560 H      13  MOL13       0.0230
   8318  H11      103.2370   74.9690  100.1370 H      13  MOL13       0.0230
   8319  H11      110.9510   68.0510  109.8810 H      13  MOL13       0.0411
   8320  H11      113.6550   67.3290  108.8840 H      13  MOL13       0.0238
   8321  H11      113.1690   68.7150  109.7800 H      13  MOL13       0.0238
   8322  H11      113.0190   68.7950  108.0830 H      13  MOL13       0.0238
   8323  H11      112.3400   65.6400  108.6440 H      13  MOL13       0.0273
   8324  H11      110.7920   65.5280  109.4400 H      13  MOL13       0.0273
   8325  H11      110.6730   67.8360  111.7780 H      13  MOL13       0.0240
   8326  H11      111.7610   67.8220  113.1900 H      13  MOL13       0.0240
   8327  H11      110.2210   67.0500  113.2610 H      13  MOL13       0.0240
   8328  H11      142.8390   55.1820  105.5510 H      13  MOL13       0.2951
   8329  H11      143.3010   57.2210  106.3070 H      13  MOL13       0.0377
   8330  H11      143.8090   57.0300  104.6350 H      13  MOL13       0.0377
   8331  H11      146.0320   57.8340  105.0610 H      13  MOL13       0.0270
   8332  H11      145.8470   58.1600  106.6650 H      13  MOL13       0.0270
   8333  H11      144.3160   59.8460  106.2500 H      13  MOL13       0.0266
   8334  H11      144.9980   59.6240  104.5300 H      13  MOL13       0.0266
   8335  H11      145.6970   61.4570  104.5760 H      13  MOL13       0.0276
   8336  H11      145.3910   61.7990  106.2700 H      13  MOL13       0.0276
   8337  H11      141.8440   64.9170  104.2380 H      13  MOL13       0.0385
   8338  H11      142.2290   63.9470  102.8050 H      13  MOL13       0.0385
   8339  H11      142.2150   61.9500  104.2120 H      13  MOL13       0.0284
   8340  H11      142.0860   62.8360  105.6880 H      13  MOL13       0.0284
   8341  H11      131.4080   58.0710  112.8030 H      13  MOL13       0.0276
   8342  H11      132.0630   58.8340  114.1720 H      13  MOL13       0.0276
   8343  H11      133.8280   55.3820  114.2530 H      13  MOL13       0.0240
   8344  H11      133.7740   56.6580  115.4360 H      13  MOL13       0.0240
   8345  H11      135.0800   56.5720  114.1770 H      13  MOL13       0.0240
   8346  H11      134.6510   56.4200  110.0250 H      13  MOL13       0.0735
   8347  H11      133.4080   57.2640  109.0990 H      13  MOL13       0.0735
   8348  H11      135.5110   58.8460  110.4590 H      13  MOL13       0.0765
   8349  H11      136.1910   58.6310  107.8020 H      13  MOL13       0.0266
   8350  H12      135.0740   57.2720  107.8720 H      13  MOL13       0.0266
   8351  H12      136.5360   57.2410  108.8470 H      13  MOL13       0.0266
   8352  H12      131.3460   61.0980  105.5710 H      13  MOL13       0.0421
   8353  H12      130.8440   59.4220  103.3850 H      13  MOL13       0.0284
   8354  H12      132.4040   60.0920  102.9130 H      13  MOL13       0.0284
   8355  H12      130.5660   62.0790  104.1070 H      13  MOL13       0.0385
   8356  H12      129.7710   61.1770  102.8140 H      13  MOL13       0.0385
   8357  H12      131.6650   58.2530  104.9450 H      13  MOL13       0.0276
   8358  H12      130.4150   59.1150  105.8240 H      13  MOL13       0.0276
   8359  H12      133.2900   58.5690  106.8360 H      13  MOL13       0.0266
   8360  H12      131.9080   57.6420  107.2080 H      13  MOL13       0.0266
   8361  H12      131.8910   59.1960  109.0730 H      13  MOL13       0.0270
   8362  H12      130.8360   60.0020  107.9290 H      13  MOL13       0.0270
   8363  H12      132.5940   61.4320  109.0640 H      13  MOL13       0.0377
   8364  H12      132.6530   61.5880  107.3090 H      13  MOL13       0.0377
   8365  H12      144.1200   62.3190  103.5950 H      13  MOL13       0.0412
   8366  H12      145.3260   65.5150  102.7620 H      13  MOL13       0.0341
   8367  H12      143.5960   65.3850  103.1390 H      13  MOL13       0.0341
   8368  H12      144.4200   64.0740  102.2180 H      13  MOL13       0.0341
   8369  H12      125.2080   59.2640  107.7640 H      13  MOL13       0.0540
   8370  H12      123.4640   58.9450  107.2720 H      13  MOL13       0.0540
   8371  H12      122.0160   57.9060  109.2720 H      13  MOL13       0.0280
   8372  H12      121.8570   59.6180  109.7180 H      13  MOL13       0.0280
   8373  H12      122.4230   58.4340  110.9130 H      13  MOL13       0.0280
   8374  H12      126.4700   60.5960  111.6880 H      13  MOL13       0.0735
   8375  H12      127.2810   59.0590  111.6880 H      13  MOL13       0.0735
   8376  H12      128.0980   61.5290  111.4170 H      13  MOL13       0.0765
   8377  H12      130.4710   61.2220  110.8880 H      13  MOL13       0.0266
   8378  H12      130.1150   59.8350  110.0050 H      13  MOL13       0.0266
   8379  H12      129.9360   59.8790  111.8220 H      13  MOL13       0.0266
   8380  H12      130.7070   64.8460  103.2940 H      13  MOL13       0.0421
   8381  H12      128.9730   66.2080  101.8660 H      13  MOL13       0.0284
   8382  H12      129.9890   66.7680  103.1270 H      13  MOL13       0.0284
   8383  H12      127.0950   66.6140  103.1790 H      13  MOL13       0.0385
   8384  H12      128.1100   67.9710  102.9340 H      13  MOL13       0.0385
   8385  H12      128.6500   64.9820  105.2400 H      13  MOL13       0.0276
   8386  H12      130.1110   64.0930  105.3300 H      13  MOL13       0.0276
   8387  H12      128.4850   62.2340  104.0360 H      13  MOL13       0.0266
   8388  H12      127.4270   63.1600  105.0920 H      13  MOL13       0.0266
   8389  H12      130.0780   62.3120  106.2200 H      13  MOL13       0.0270
   8390  H12      128.8550   61.0650  106.0580 H      13  MOL13       0.0270
   8391  H12      127.2990   62.5850  107.4720 H      13  MOL13       0.0377
   8392  H12      128.6450   63.7360  107.4600 H      13  MOL13       0.0377
   8393  H12      145.3960   56.1040  109.2090 H      13  MOL13       0.0540
   8394  H12      143.9000   55.9600  108.1780 H      13  MOL13       0.0540
   8395  H12      144.1430   53.6000  111.5790 H      13  MOL13       0.0280
   8396  H12      144.1950   55.2900  112.1350 H      13  MOL13       0.0280
   8397  H12      145.5260   54.6480  111.2290 H      13  MOL13       0.0280
   8398  H12      140.0510   55.2380  109.5240 H      13  MOL13       0.0735
   8399  H12      140.6230   56.8790  109.1040 H      13  MOL13       0.0735
   8400  H12      140.4790   54.9930  107.0070 H      13  MOL13       0.0765
   8401  H12      138.0450   55.0270  106.4490 H      13  MOL13       0.0266
   8402  H12      137.6280   55.9470  107.8660 H      13  MOL13       0.0266
   8403  H12      138.2080   54.3340  108.0930 H      13  MOL13       0.0266
   8404  H12      137.8000   63.0300  104.4990 H      13  MOL13       0.0421
   8405  H12      135.5780   62.9050  102.5530 H      13  MOL13       0.0284
   8406  H12      135.8250   64.3730  103.4820 H      13  MOL13       0.0284
   8407  H12      135.7490   62.6560  105.5340 H      13  MOL13       0.0385
   8408  H12      135.6290   61.4400  104.3080 H      13  MOL13       0.0385
   8409  H12      138.3380   61.2780  102.3990 H      13  MOL13       0.0276
   8410  H12      136.7680   60.9150  102.9240 H      13  MOL13       0.0276
   8411  H12      137.7830   61.3060  105.3970 H      13  MOL13       0.0266
   8412  H12      139.2810   60.9290  104.5520 H      13  MOL13       0.0266
   8413  H12      137.6890   58.8580  103.8810 H      13  MOL13       0.0270
   8414  H12      137.0080   59.2780  105.4760 H      13  MOL13       0.0270
   8415  H12      139.9950   59.0510  105.3130 H      13  MOL13       0.0377
   8416  H12      139.2590   57.6230  104.6590 H      13  MOL13       0.0377
   8417  H12      130.6520   52.2030  127.0290 H      13  MOL13       0.0263
   8418  H12      129.8120   51.4890  125.6660 H      13  MOL13       0.0263
   8419  H12      129.2070   54.0570  126.9530 H      13  MOL13       0.0265
   8420  H12      127.8460   53.1180  126.3180 H      13  MOL13       0.0265
   8421  H12      128.9050   52.9000  124.1310 H      13  MOL13       0.0265
   8422  H12      130.4600   53.3530  124.7640 H      13  MOL13       0.0265
   8423  H12      129.8920   55.5160  125.2420 H      13  MOL13       0.0265
   8424  H12      128.1550   55.1490  124.8730 H      13  MOL13       0.0265
   8425  H12      128.6590   54.8860  122.5460 H      13  MOL13       0.0265
   8426  H12      130.2870   55.4160  122.7940 H      13  MOL13       0.0265
   8427  H12      129.4990   57.6040  123.7530 H      13  MOL13       0.0265
   8428  H12      127.9460   56.9520  124.0840 H      13  MOL13       0.0265
   8429  H12      128.5380   58.6060  122.1020 H      13  MOL13       0.0265
   8430  H12      127.0640   57.7060  122.3110 H      13  MOL13       0.0265
   8431  H12      128.6710   55.9500  120.6820 H      13  MOL13       0.0265
   8432  H12      129.0270   57.5780  120.1660 H      13  MOL13       0.0265
   8433  H12      126.4670   57.9130  120.2460 H      13  MOL13       0.0266
   8434  H12      126.6650   56.1640  119.7180 H      13  MOL13       0.0266
   8435  H12      128.5190   57.2530  118.3630 H      13  MOL13       0.0298
   8436  H12      127.6180   58.7770  118.5280 H      13  MOL13       0.0298
   8437  H12      126.3860   58.0950  116.7570 H      13  MOL13       0.0697
   8438  H12      126.0650   56.4550  117.3410 H      13  MOL13       0.0697
   8439  H12      129.4910   50.9620  128.5320 H      13  MOL13       0.0230
   8440  H12      129.9270   49.9680  127.1870 H      13  MOL13       0.0230
   8441  H12      128.2220   50.4360  127.4150 H      13  MOL13       0.0230
   8442  H12      129.5690   55.5780  114.5950 H      13  MOL13       0.0411
   8443  H12      130.9550   54.9170  116.5810 H      13  MOL13       0.0238
   8444  H12      129.2540   54.6560  116.7140 H      13  MOL13       0.0238
   8445  H12      129.8440   55.9570  117.5560 H      13  MOL13       0.0238
   8446  H12      131.4500   57.7130  115.7600 H      13  MOL13       0.0273
   8447  H12      130.1610   58.2470  114.6760 H      13  MOL13       0.0273
   8448  H12      133.5540   59.1260  112.5250 H      13  MOL13       0.0240
   8449  H12      135.0810   58.3480  112.9530 H      13  MOL13       0.0240
   8450  H13      134.0480   59.0260  114.2460 H      13  MOL13       0.0240
   8451  O65      124.8450   94.1390  102.7370 O.2    14  MOL14      -0.2510
   8452  O65      123.4130   95.3830  103.8080 O.3    14  MOL14      -0.4806
   8453  C65      124.6900   94.9770  103.5860 C.2    14  MOL14       0.3047
   8454  C65      125.6100   95.7560  104.6340 C.3    14  MOL14       0.0448
   8455  C65      127.0780   96.3880  104.6600 C.3    14  MOL14      -0.0430
   8456  C65      127.6340   97.8390  105.1980 C.3    14  MOL14      -0.0515
   8457  C65      129.1860   98.1580  104.7320 C.3    14  MOL14      -0.0403
   8458  S65      128.8060  102.7600  101.7520 S.3    14  MOL14      -0.0928
   8459  C65      130.0820  101.7590  103.0160 C.3    14  MOL14       0.0050
   8460  C66      130.1480  100.7610  104.3410 C.3    14  MOL14      -0.0305
   8461  C66      115.5340  103.2050  104.8210 C.2    14  MOL14       0.3129
   8462  C66      114.7260  104.5850  104.6960 C.3    14  MOL14       0.0622
   8463  C66      114.8790  105.5170  103.4810 C.3    14  MOL14      -0.0370
   8464  C66      113.2460  104.3530  104.5740 C.3    14  MOL14      -0.0497
   8465  O66      115.5250  102.2930  104.0440 O.2    14  MOL14      -0.2502
   8466  O66      116.2700  103.2020  105.9930 O.3    14  MOL14      -0.4605
   8467  C66      117.1640  102.1780  106.5970 C.3    14  MOL14       0.1290
   8468  C66      118.5590  102.5180  107.2280 C.3    14  MOL14       0.1341
   8469  C66      119.4380  102.7070  106.0570 C.3    14  MOL14      -0.0244
   8470  C67      125.7690  105.9030  109.2900 C.3    14  MOL14       0.0162
   8471  C67      126.6240  106.4450  108.0040 C.3    14  MOL14      -0.0305
   8472  C67      126.9870  107.6060  106.9400 C.3    14  MOL14       0.0050
   8473  S67      127.4370  109.4000  107.2960 S.3    14  MOL14      -0.0928
   8474  C67      124.4690  105.7000  110.3530 C.3    14  MOL14      -0.0403
   8475  C67      122.9840  105.6710  111.0410 C.3    14  MOL14      -0.0515
   8476  C67      121.3810  105.4270  110.9910 C.3    14  MOL14      -0.0429
   8477  C67      120.1600  104.5430  110.4160 C.3    14  MOL14       0.0450
   8478  C67      119.5960  103.3140  109.5520 C.2    14  MOL14       0.3074
   8479  O67      119.1580  103.4650  108.2580 O.3    14  MOL14      -0.4582
   8480  O68      119.4780  102.2780  110.1160 O.2    14  MOL14      -0.2508
   8481  C68      130.4160   99.2700  104.1820 C.3    14  MOL14       0.0162
   8482  C68      115.6590  111.7050  103.7390 C.2    14  MOL14       0.3344
   8483  C68      115.2020  113.0780  104.2390 C.2    14  MOL14       0.0264
   8484  C68      116.0530  114.0910  104.4560 C.2    14  MOL14      -0.0890
   8485  C68      113.7800  113.4050  104.6130 C.3    14  MOL14      -0.0335
   8486  O68      114.8300  110.8560  103.5330 O.2    14  MOL14      -0.2453
   8487  O68      116.9920  111.4480  103.5410 O.3    14  MOL14      -0.4577
   8488  C68      117.9490  110.3080  103.4200 C.3    14  MOL14       0.1293
   8489  C68      119.1100  109.7770  104.4000 C.3    14  MOL14       0.1341
   8490  C69      119.8210  108.8620  103.3580 C.3    14  MOL14      -0.0244
   8491  C69      127.4270  112.1180  106.0040 C.3    14  MOL14       0.0162
   8492  C69      128.3840  113.0090  106.7920 C.3    14  MOL14      -0.0313
   8493  C69      127.6150  114.2840  107.0280 C.3    14  MOL14      -0.0056
   8494  S69      127.4320  114.7670  108.7280 S.3    14  MOL14      -0.1641
   8495  C69      126.4130  112.9560  104.9580 C.3    14  MOL14      -0.0403
   8496  C69      124.7450  113.2150  104.7960 C.3    14  MOL14      -0.0515
   8497  C69      123.0700  113.2200  105.0810 C.3    14  MOL14      -0.0429
   8498  C69      121.5200  112.8650  105.7380 C.3    14  MOL14       0.0450
   8499  C69      120.4580  111.6720  106.3440 C.2    14  MOL14       0.3074
   8500  O70      119.7670  110.6030  105.5880 O.3    14  MOL14      -0.4582
   8501  O70      120.1830  111.6890  107.4960 O.2    14  MOL14      -0.2508
   8502  C70      125.9980  115.9150  108.6940 C.3    14  MOL14      -0.0181
   8503  S70      128.1600  110.4500  105.6300 S.3    14  MOL14      -0.0897
   8504  C70      120.7440   93.6520  105.6880 C.2    14  MOL14       0.3344
   8505  C70      120.8470   92.5400  106.6140 C.2    14  MOL14       0.0264
   8506  C70      121.1930   92.8020  107.8900 C.2    14  MOL14      -0.0890
   8507  C70      120.4550   91.1990  106.1080 C.3    14  MOL14      -0.0335
   8508  O70      120.5200   93.5260  104.5060 O.2    14  MOL14      -0.2453
   8509  O70      120.8510   94.8940  106.1940 O.3    14  MOL14      -0.4577
   8510  C71      119.8030   95.7930  105.9140 C.3    14  MOL14       0.1293
   8511  C71      119.8240   96.3920  104.5530 C.3    14  MOL14       0.1341
   8512  C71      118.7280   97.4440  104.4490 C.3    14  MOL14      -0.0244
   8513  S71      126.6870  102.7800  101.8240 S.3    14  MOL14      -0.0897
   8514  C71      125.6930  101.7810  103.1660 C.3    14  MOL14       0.0162
   8515  C71      125.8260  101.4400  104.7540 C.3    14  MOL14      -0.0305
   8516  C71      126.1790  101.8780  106.2790 C.3    14  MOL14       0.0050
   8517  S71      126.3910  102.9540  107.7800 S.3    14  MOL14      -0.0928
   8518  C71      124.3170  101.8690  102.5180 C.3    14  MOL14      -0.0403
   8519  C71      123.2250  100.8330  102.8590 C.3    14  MOL14      -0.0515
   8520  C72      122.6740   99.5310  102.2110 C.3    14  MOL14      -0.0429
   8521  C72      122.4930   98.1180  102.8390 C.3    14  MOL14       0.0450
   8522  C72      121.7480   97.8340  104.1300 C.2    14  MOL14       0.3074
   8523  O72      121.0780   96.6850  103.9200 O.3    14  MOL14      -0.4582
   8524  O72      121.6700   98.4980  105.1100 O.2    14  MOL14      -0.2508
   8525  S72      126.5850  104.2090  109.3160 S.3    14  MOL14      -0.0897
   8526  C72      101.5450  113.7010  100.4410 C.3    14  MOL14      -0.0559
   8527  C72      102.7490  113.2480  101.2280 C.3    14  MOL14      -0.0533
   8528  C72      103.9740  114.0900  101.5960 C.3    14  MOL14      -0.0531
   8529  C72      104.9150  113.1130  102.3120 C.3    14  MOL14      -0.0531
   8530  C73      105.8990  113.4140  103.4440 C.3    14  MOL14      -0.0531
   8531  C73      106.1100  112.1250  104.2870 C.3    14  MOL14      -0.0531
   8532  C73      107.5670  111.6900  104.2820 C.3    14  MOL14      -0.0531
   8533  C73      107.9790  110.2750  103.8850 C.3    14  MOL14      -0.0530
   8534  C73      109.4920  110.2930  104.0100 C.3    14  MOL14      -0.0500
   8535  C73      110.5030  109.6110  103.1270 C.3    14  MOL14      -0.0185
   8536  C73      111.8210  109.7670  103.8010 C.3    14  MOL14       0.0925
   8537  C73      100.5580  112.5240  100.3870 C.3    14  MOL14      -0.0653
   8538  C73      114.4060  107.7730  102.2780 C.3    14  MOL14       0.0537
   8539  C73      113.3600  108.8540  102.2550 C.2    14  MOL14       0.3099
   8540  O74      112.6850  108.7220  103.4120 O.3    14  MOL14      -0.4644
   8541  O74      113.1150  109.7620  101.4990 O.2    14  MOL14      -0.2505
   8542  C74      115.0010  107.0930  101.0310 C.3    14  MOL14      -0.0523
   8543  C74      114.0170  106.7850  103.4260 C.3    14  MOL14      -0.0394
   8544  C74      114.8630  105.3580  105.9660 C.3    14  MOL14      -0.0497
   8545  O74      149.9010   97.5660  107.5570 O.2    14  MOL14      -0.2510
   8546  O74      149.4810   97.1860  105.3700 O.3    14  MOL14      -0.4806
   8547  C74      149.3860   96.9160  106.7010 C.2    14  MOL14       0.3047
   8548  C74      148.4360   95.7600  106.8970 C.3    14  MOL14       0.0448
   8549  C74      148.6620   94.7690  108.0590 C.3    14  MOL14      -0.0430
   8550  C75      147.3650   94.7080  108.8330 C.3    14  MOL14      -0.0515
   8551  C75      146.9560   93.5310  109.7020 C.3    14  MOL14      -0.0403
   8552  S75      141.9830   93.9690  108.9080 S.3    14  MOL14      -0.0928
   8553  C75      143.3080   94.6210  109.8880 C.3    14  MOL14       0.0050
   8554  C75      144.6480   94.3740  109.2860 C.3    14  MOL14      -0.0305
   8555  C75      135.5220  104.1630  107.8420 C.2    14  MOL14       0.3129
   8556  C75      136.6030  105.2570  107.9110 C.3    14  MOL14       0.0622
   8557  C75      137.9430  104.5620  107.8030 C.3    14  MOL14      -0.0370
   8558  C75      136.4940  105.9370  106.5470 C.3    14  MOL14      -0.0497
   8559  O75      134.7140  104.2090  106.9590 O.2    14  MOL14      -0.2502
   8560  O76      135.6220  103.0880  108.7320 O.3    14  MOL14      -0.4605
   8561  C76      135.5710  103.2370  110.1630 C.3    14  MOL14       0.1290
   8562  C76      135.2930  102.0550  111.1000 C.3    14  MOL14       0.1341
   8563  C76      134.2140  100.9800  111.1140 C.3    14  MOL14      -0.0244
   8564  C76      135.5630   96.4850  108.5910 C.3    14  MOL14       0.0162
   8565  C76      133.9690   95.9370  108.5060 C.3    14  MOL14      -0.0305
   8566  C76      132.4340   95.4270  108.1330 C.3    14  MOL14       0.0050
   8567  S76      131.2160   95.2900  106.7470 S.3    14  MOL14      -0.0928
   8568  C76      135.7370   97.7450  109.4310 C.3    14  MOL14      -0.0403
   8569  C76      136.9540   98.6680  109.0220 C.3    14  MOL14      -0.0515
   8570  C77      137.9600   99.3770  109.9880 C.3    14  MOL14      -0.0429
   8571  C77      137.8390   99.5900  111.5110 C.3    14  MOL14       0.0450
   8572  C77      136.9340  100.5880  112.0420 C.2    14  MOL14       0.3074
   8573  O77      136.4350  101.2150  110.9710 O.3    14  MOL14      -0.4582
   8574  O77      136.6550  100.8140  113.1970 O.2    14  MOL14      -0.2508
   8575  S77      144.8400   91.8100  110.1940 S.3    14  MOL14      -0.0897
   8576  C77      145.5050   93.5150  110.1820 C.3    14  MOL14       0.0162
   8577  C77      125.8680   89.9490  102.7450 C.2    14  MOL14       0.3344
   8578  C77      124.7300   89.2250  102.2540 C.2    14  MOL14       0.0264
   8579  C77      123.5320   89.4050  102.8300 C.2    14  MOL14      -0.0890
   8580  C78      125.0510   88.2930  101.1570 C.3    14  MOL14      -0.0335
   8581  O78      127.0050   89.5670  102.5720 O.2    14  MOL14      -0.2453
   8582  O78      125.5990   91.0990  103.3900 O.3    14  MOL14      -0.4577
   8583  C78      126.6470   91.6420  104.1410 C.3    14  MOL14       0.1293
   8584  C78      127.2690   92.8990  103.7020 C.3    14  MOL14       0.1341
   8585  C78      128.0270   93.3580  105.0320 C.3    14  MOL14      -0.0244
   8586  C78      132.1510   96.3140  103.7320 C.3    14  MOL14       0.0162
   8587  C78      133.4220   96.9290  103.0850 C.3    14  MOL14      -0.0305
   8588  C78      133.3600   97.5050  101.7030 C.3    14  MOL14       0.0050
   8589  S78      133.1290   99.2510  101.8230 S.3    14  MOL14      -0.0928
   8590  C79      131.9420   94.8750  103.3450 C.3    14  MOL14      -0.0403
   8591  C79      131.5430   94.8620  101.8060 C.3    14  MOL14      -0.0515
   8592  C79      130.8640   93.7890  100.7700 C.3    14  MOL14      -0.0429
   8593  C79      129.3640   93.1850  100.3910 C.3    14  MOL14       0.0450
   8594  C79      128.2160   92.4130  101.2270 C.2    14  MOL14       0.3074
   8595  O79      127.7090   93.1380  102.2840 O.3    14  MOL14      -0.4582
   8596  O79      127.9350   91.2830  100.9510 O.2    14  MOL14      -0.2508
   8597  S79      131.2280   98.9960  102.5250 S.3    14  MOL14      -0.0897
   8598  S79      131.5280   96.8080  105.4270 S.3    14  MOL14      -0.0897
   8599  C79      146.0900   97.0100  110.6580 C.2    14  MOL14       0.3344
   8600  C80      147.2060   96.2890  111.2860 C.2    14  MOL14       0.0264
   8601  C80      146.7940   95.5180  112.2690 C.2    14  MOL14      -0.0890
   8602  C80      148.6470   96.2510  110.8460 C.3    14  MOL14      -0.0335
   8603  O80      146.2450   97.5990  109.6200 O.2    14  MOL14      -0.2453
   8604  O80      144.8320   97.0520  111.2270 O.3    14  MOL14      -0.4577
   8605  C80      144.1410   98.2220  110.8090 C.3    14  MOL14       0.1293
   8606  C80      143.1550   98.0780  109.7380 C.3    14  MOL14       0.1341
   8607  C80      142.2580   99.3340  109.7500 C.3    14  MOL14      -0.0244
   8608  S80      142.5410   92.0670  108.3850 S.3    14  MOL14      -0.0897
   8609  C80      141.2360   91.9820  107.1310 C.3    14  MOL14       0.0162
   8610  C81      139.9320   91.9010  107.9740 C.3    14  MOL14      -0.0305
   8611  C81      138.7200   92.7940  107.7690 C.3    14  MOL14       0.0050
   8612  S81      138.7660   94.2620  108.8920 S.3    14  MOL14      -0.0928
   8613  C81      141.4450   93.1440  106.1570 C.3    14  MOL14      -0.0403
   8614  C81      142.8810   93.5910  105.7700 C.3    14  MOL14      -0.0515
   8615  C81      143.2120   95.1350  105.7420 C.3    14  MOL14      -0.0429
   8616  C81      143.6440   96.4810  106.4070 C.3    14  MOL14       0.0450
   8617  C81      143.0030   97.2450  107.5370 C.2    14  MOL14       0.3074
   8618  O81      143.8110   97.4770  108.5900 O.3    14  MOL14      -0.4582
   8619  O81      141.9490   97.7950  107.4470 O.2    14  MOL14      -0.2508
   8620  S82      137.3090   95.7560  109.0920 S.3    14  MOL14      -0.0897
   8621  C82      148.9990  114.8180  110.7640 C.3    14  MOL14      -0.0559
   8622  C82      148.2660  114.1560  109.6300 C.3    14  MOL14      -0.0533
   8623  C82      148.3020  112.6500  109.8570 C.3    14  MOL14      -0.0531
   8624  C82      146.9180  112.1820  110.3060 C.3    14  MOL14      -0.0531
   8625  C82      146.6810  110.7070  110.7260 C.3    14  MOL14      -0.0531
   8626  C82      145.3460  110.3990  110.1210 C.3    14  MOL14      -0.0531
   8627  C82      144.5840  109.1390  109.7920 C.3    14  MOL14      -0.0531
   8628  C82      144.3000  107.8520  110.5030 C.3    14  MOL14      -0.0530
   8629  C82      144.8480  106.6640  109.7610 C.3    14  MOL14      -0.0500
   8630  C83      144.4730  106.5960  108.2780 C.3    14  MOL14      -0.0185
   8631  C83      143.2010  107.3020  107.8280 C.3    14  MOL14       0.0925
   8632  C83      148.9800  116.3000  110.7330 C.3    14  MOL14      -0.0653
   8633  C83      139.8370  106.0730  108.3260 C.3    14  MOL14       0.0537
   8634  C83      140.8510  107.0350  107.8110 C.2    14  MOL14       0.3099
   8635  O83      142.0380  106.6690  108.3370 O.3    14  MOL14      -0.4644
   8636  O83      140.6810  107.9720  107.0610 O.2    14  MOL14      -0.2505
   8637  C83      140.3600  104.9240  109.1900 C.3    14  MOL14      -0.0523
   8638  C83      139.0930  105.3830  107.2090 C.3    14  MOL14      -0.0394
   8639  C83      136.3590  106.1970  109.0890 C.3    14  MOL14      -0.0497
   8640  O84      143.7560   69.9210  106.0400 O.2    14  MOL14      -0.2510
   8641  O84      143.8640   71.7270  104.7060 O.3    14  MOL14      -0.4806
   8642  C84      144.0950   71.0470  105.8710 C.2    14  MOL14       0.3047
   8643  C84      144.7840   71.9600  106.8820 C.3    14  MOL14       0.0448
   8644  C84      145.1960   71.2670  108.2350 C.3    14  MOL14      -0.0430
   8645  C84      145.8420   71.9110  109.5790 C.3    14  MOL14      -0.0516
   8646  C84      146.5020   72.5950  110.9020 C.3    14  MOL14      -0.0411
   8647  S84      147.7290   77.7830  110.6400 S.3    14  MOL14      -0.0928
   8648  C84      148.2240   76.4290  111.7640 C.3    14  MOL14       0.0049
   8649  C84      147.1900   75.3670  111.3140 C.3    14  MOL14      -0.0313
   8650  C85      136.9740   81.6020  105.6020 C.2    14  MOL14       0.3129
   8651  C85      135.8760   81.9760  106.5650 C.3    14  MOL14       0.0622
   8652  C85      135.5230   83.4720  106.7980 C.3    14  MOL14      -0.0370
   8653  C85      134.8230   80.9510  106.3620 C.3    14  MOL14      -0.0497
   8654  O85      136.8950   80.8170  104.6890 O.2    14  MOL14      -0.2502
   8655  O85      138.1310   82.1780  106.0380 O.3    14  MOL14      -0.4605
   8656  C85      139.2900   81.4270  105.7240 C.3    14  MOL14       0.1290
   8657  C85      140.1050   80.9690  106.8660 C.3    14  MOL14       0.1341
   8658  C85      141.1240   80.0770  106.1930 C.3    14  MOL14      -0.0244
   8659  C85      144.5160   84.6690  106.1630 C.3    14  MOL14       0.0162
   8660  C86      145.8430   85.0730  105.5260 C.3    14  MOL14      -0.0305
   8661  C86      146.4390   86.2260  106.3060 C.3    14  MOL14       0.0050
   8662  S86      147.9920   86.0620  107.1530 S.3    14  MOL14      -0.0928
   8663  C86      143.4610   84.6050  105.1110 C.3    14  MOL14      -0.0403
   8664  C86      142.2380   83.7530  105.4040 C.3    14  MOL14      -0.0515
   8665  C86      141.4490   84.3320  106.5810 C.3    14  MOL14      -0.0429
   8666  C86      141.9050   83.8350  107.9540 C.3    14  MOL14       0.0450
   8667  C86      141.8660   82.3530  107.9070 C.2    14  MOL14       0.3074
   8668  O86      140.6410   82.1660  107.3980 O.3    14  MOL14      -0.4582
   8669  O86      142.6690   81.5140  108.2270 O.2    14  MOL14      -0.2508
   8670  S87      148.0980   73.3550  113.0620 S.3    14  MOL14      -0.1607
   8671  C87      147.3740   73.8240  111.4700 C.3    14  MOL14       0.0058
   8672  C87      149.6620   74.1920  113.0710 C.3    14  MOL14      -0.0178
   8673  C87      138.1400   90.6920  105.0430 C.2    14  MOL14       0.3344
   8674  C87      138.8320   91.6550  104.1800 C.2    14  MOL14       0.0264
   8675  C87      140.1200   91.4270  103.8940 C.2    14  MOL14      -0.0890
   8676  C87      138.0860   92.8660  103.6900 C.3    14  MOL14      -0.0335
   8677  O87      137.0000   90.9180  105.3820 O.2    14  MOL14      -0.2453
   8678  O87      138.7800   89.5640  105.5130 O.3    14  MOL14      -0.4577
   8679  C87      138.0110   88.8120  106.4630 C.3    14  MOL14       0.1293
   8680  C88      138.8270   87.9730  107.4270 C.3    14  MOL14       0.1341
   8681  C88      138.7220   86.4200  107.5670 C.3    14  MOL14      -0.0244
   8682  C88      147.1040   88.2790  108.9230 C.3    14  MOL14       0.0162
   8683  C88      147.8200   89.2060  109.9490 C.3    14  MOL14      -0.0305
   8684  C88      147.4050   90.5020  110.6170 C.3    14  MOL14       0.0050
   8685  S88      145.8770   90.7470  111.5550 S.3    14  MOL14      -0.0928
   8686  C88      145.5750   88.4340  108.8080 C.3    14  MOL14      -0.0403
   8687  C88      144.8900   88.7290  107.4790 C.3    14  MOL14      -0.0515
   8688  C88      143.6000   87.9300  107.3650 C.3    14  MOL14      -0.0429
   8689  C88      142.4700   88.6180  108.0870 C.3    14  MOL14       0.0450
   8690  C89      141.2470   87.7530  107.9920 C.2    14  MOL14       0.3074
   8691  O89      140.2000   88.4680  107.4760 O.3    14  MOL14      -0.4582
   8692  O89      141.2380   86.6080  108.3530 O.2    14  MOL14      -0.2508
   8693  S89      148.0520   88.0700  107.3840 S.3    14  MOL14      -0.0897
   8694  C89      140.0140   72.6770  105.5550 C.2    14  MOL14       0.3344
   8695  C89      139.9830   71.4610  106.3560 C.2    14  MOL14       0.0264
   8696  C89      141.1700   71.1520  106.8610 C.2    14  MOL14      -0.0890
   8697  C89      138.7530   70.6580  106.6060 C.3    14  MOL14      -0.0335
   8698  O89      139.0750   73.0290  104.8740 O.2    14  MOL14      -0.2453
   8699  O89      141.1570   73.4510  105.6250 O.3    14  MOL14      -0.4577
   8700  C90      140.9470   74.8540  105.7800 C.3    14  MOL14       0.1293
   8701  C90      142.0220   75.5730  105.0460 C.3    14  MOL14       0.1341
   8702  C90      141.6440   76.8180  104.1980 C.3    14  MOL14      -0.0244
   8703  S90      148.9740   79.4100  110.3810 S.3    14  MOL14      -0.0897
   8704  C90      147.5970   80.2310  109.5270 C.3    14  MOL14       0.0162
   8705  C90      147.5210   81.7550  109.4700 C.3    14  MOL14      -0.0305
   8706  C90      146.1520   82.0700  108.9080 C.3    14  MOL14       0.0050
   8707  S90      145.8790   83.7840  108.4760 S.3    14  MOL14      -0.0928
   8708  C90      147.3800   79.6040  108.1590 C.3    14  MOL14      -0.0403
   8709  C90      146.0500   78.8370  108.1600 C.3    14  MOL14      -0.0515
   8710  C91      145.2860   78.6510  106.8610 C.3    14  MOL14      -0.0429
   8711  C91      144.7400   77.2480  106.6030 C.3    14  MOL14       0.0450
   8712  C91      143.2780   76.9380  106.4300 C.2    14  MOL14       0.3074
   8713  O91      143.2540   75.7730  105.7450 O.3    14  MOL14      -0.4582
   8714  O91      142.2780   77.5120  106.7560 O.2    14  MOL14      -0.2508
   8715  S91      144.6800   83.1210  106.9910 S.3    14  MOL14      -0.0897
   8716  C91      121.3110   83.0620  105.1620 C.3    14  MOL14      -0.0559
   8717  C91      121.9110   84.1760  105.9930 C.3    14  MOL14      -0.0533
   8718  C91      123.4180   83.9060  105.9370 C.3    14  MOL14      -0.0531
   8719  C91      124.0770   84.5670  107.0850 C.3    14  MOL14      -0.0531
   8720  C92      125.5630   84.7210  107.1220 C.3    14  MOL14      -0.0531
   8721  C92      125.7970   85.6660  108.3000 C.3    14  MOL14      -0.0531
   8722  C92      127.0560   86.5180  108.3210 C.3    14  MOL14      -0.0531
   8723  C92      128.2150   86.2310  107.3620 C.3    14  MOL14      -0.0530
   8724  C92      128.9260   87.4620  106.8830 C.3    14  MOL14      -0.0500
   8725  C92      130.4050   87.3000  107.0290 C.3    14  MOL14      -0.0185
   8726  C92      131.3370   87.8870  106.0060 C.3    14  MOL14       0.0925
   8727  C92      120.0920   83.0490  104.2810 C.3    14  MOL14      -0.0653
   8728  C92      133.2780   84.8820  105.3820 C.3    14  MOL14       0.0537
   8729  C92      133.2380   86.3660  105.5320 C.2    14  MOL14       0.3099
   8730  O93      131.9490   86.7100  105.5040 O.3    14  MOL14      -0.4644
   8731  O93      134.1750   87.1090  105.6370 O.2    14  MOL14      -0.2505
   8732  C93      131.8540   84.3460  105.0800 C.3    14  MOL14      -0.0523
   8733  C93      134.1920   84.2560  106.5400 C.3    14  MOL14      -0.0394
   8734  C93      136.5290   81.6360  107.8830 C.3    14  MOL14      -0.0497
   8735 5H93      123.3670   95.9430  104.5840 H      14  MOL14       0.2951
   8736 6H93      125.6300   94.9600  105.3640 H      14  MOL14       0.0377
   8737 7H93      124.8660   96.4500  104.9560 H      14  MOL14       0.0377
   8738 8H93      127.4900   96.2010  103.6960 H      14  MOL14       0.0270
   8739 9H93      127.6650   95.7360  105.3270 H      14  MOL14       0.0270
   8740 0H94      127.8040   97.5860  106.2620 H      14  MOL14       0.0266
   8741 1H94      126.9710   98.6810  105.3530 H      14  MOL14       0.0266
   8742 2H94      129.4740   97.1500  104.4590 H      14  MOL14       0.0276
   8743 3H94      129.4980   98.3420  105.7810 H      14  MOL14       0.0276
   8744 4H94      130.6610  102.6270  103.3010 H      14  MOL14       0.0385
   8745 5H94      130.7130  101.2730  102.3040 H      14  MOL14       0.0385
   8746 6H94      129.4620  100.7210  105.2050 H      14  MOL14       0.0284
   8747 7H94      131.0540  101.1430  104.7920 H      14  MOL14       0.0284
   8748 8H94      114.7030  104.8480  102.6510 H      14  MOL14       0.0276
   8749 9H94      115.8170  105.9930  103.2530 H      14  MOL14       0.0276
   8750 0H95      112.9730  103.3350  104.6560 H      14  MOL14       0.0240
   8751 1H95      112.7890  104.6500  103.6440 H      14  MOL14       0.0240
   8752 2H95      112.7160  104.9060  105.3380 H      14  MOL14       0.0240
   8753 3H95      116.6140  101.5740  107.3250 H      14  MOL14       0.0735
   8754 4H95      117.4300  101.4520  105.8060 H      14  MOL14       0.0735
   8755 5H95      118.8560  101.5380  107.5260 H      14  MOL14       0.0765
   8756 6H95      120.3800  102.8430  106.5450 H      14  MOL14       0.0266
   8757 7H95      119.3520  103.5670  105.4150 H      14  MOL14       0.0266
   8758 8H95      119.3020  101.8370  105.4290 H      14  MOL14       0.0266
   8759 9H95      126.4640  106.1680  110.1150 H      14  MOL14       0.0421
   8760 0H96      126.5390  105.6370  107.2480 H      14  MOL14       0.0284
   8761 1H96      127.6000  106.2220  108.4580 H      14  MOL14       0.0284
   8762 2H96      126.3370  107.5730  106.0610 H      14  MOL14       0.0385
   8763 3H96      127.8580  107.0940  106.5570 H      14  MOL14       0.0385
   8764 4H96      124.5130  104.6360  110.2460 H      14  MOL14       0.0276
   8765 5H96      125.0250  105.7910  111.2940 H      14  MOL14       0.0276
   8766 6H96      122.9030  106.6540  111.5460 H      14  MOL14       0.0266
   8767 7H96      123.2920  104.9820  111.8460 H      14  MOL14       0.0266
   8768 8H96      120.9640  106.4530  110.8980 H      14  MOL14       0.0270
   8769 9H96      121.2420  105.2400  112.0720 H      14  MOL14       0.0270
   8770 0H97      119.3020  105.1290  110.7840 H      14  MOL14       0.0377
   8771 1H97      120.2830  103.8240  111.2430 H      14  MOL14       0.0377
   8772 2H97      131.1400   99.1320  104.9970 H      14  MOL14       0.0421
   8773 3H97      115.7150  115.0220  104.9110 H      14  MOL14       0.0540
   8774 4H97      117.1270  114.0130  104.3450 H      14  MOL14       0.0540
   8775 5H97      113.4380  114.3040  104.0890 H      14  MOL14       0.0280
   8776 6H97      113.7340  113.7050  105.6590 H      14  MOL14       0.0280
   8777 7H97      113.1140  112.5500  104.4820 H      14  MOL14       0.0280
   8778 8H97      117.4040  109.4270  103.0820 H      14  MOL14       0.0735
   8779 9H97      118.5460  110.6800  102.5790 H      14  MOL14       0.0735
   8780 0H98      118.7580  109.0690  105.1000 H      14  MOL14       0.0765
   8781 1H98      119.0060  108.3030  102.8660 H      14  MOL14       0.0266
   8782 2H98      120.4700  108.0670  103.7270 H      14  MOL14       0.0266
   8783 3H98      120.3530  109.3700  102.5440 H      14  MOL14       0.0266
   8784 4H98      126.9950  111.8070  106.9370 H      14  MOL14       0.0421
   8785 5H98      129.2880  113.2220  106.2500 H      14  MOL14       0.0284
   8786 6H98      128.6590  112.5180  107.7420 H      14  MOL14       0.0284
   8787 7H98      126.5590  114.1390  106.7950 H      14  MOL14       0.0377
   8788 8H98      128.0740  114.9910  106.3380 H      14  MOL14       0.0377
   8789 9H98      126.7900  113.9930  104.9320 H      14  MOL14       0.0276
   8790 0H99      126.5870  112.6800  103.9170 H      14  MOL14       0.0276
   8791 1H99      124.6430  112.4320  104.0390 H      14  MOL14       0.0266
   8792 2H99      124.7490  114.1270  104.1610 H      14  MOL14       0.0266
   8793 3H99      122.8490  113.0280  104.0070 H      14  MOL14       0.0270
   8794 4H99      122.9850  114.2590  104.9130 H      14  MOL14       0.0270
   8795 5H99      120.9610  113.5970  105.2020 H      14  MOL14       0.0377
   8796 6H99      121.5350  113.2280  106.7440 H      14  MOL14       0.0377
   8797 7H99      126.2230  116.9870  108.7820 H      14  MOL14       0.0340
   8798 8H99      125.3470  115.7390  109.5410 H      14  MOL14       0.0340
   8799 9H99      125.3810  115.7480  107.8170 H      14  MOL14       0.0340
   8800  H10      121.2930   92.0230  108.6350 H      14  MOL14       0.0540
   8801  H10      121.3510   93.8130  108.2510 H      14  MOL14       0.0540
   8802  H10      121.2320   90.8130  105.4500 H      14  MOL14       0.0280
   8803  H10      119.5110   91.1900  105.5500 H      14  MOL14       0.0280
   8804  H10      120.3070   90.5340  106.9650 H      14  MOL14       0.0280
   8805  H10      118.8350   95.2900  105.9980 H      14  MOL14       0.0735
   8806  H10      119.7960   96.4910  106.7520 H      14  MOL14       0.0735
   8807  H10      119.4980   95.5700  103.9200 H      14  MOL14       0.0765
   8808  H10      118.7250   98.0160  103.5230 H      14  MOL14       0.0266
   8809  H10      118.7410   98.1600  105.2750 H      14  MOL14       0.0266
   8810  H10      117.7810   96.9090  104.4910 H      14  MOL14       0.0266
   8811  H10      125.6820  100.7440  102.9530 H      14  MOL14       0.0421
   8812  H10      124.8090  101.1130  104.8360 H      14  MOL14       0.0284
   8813  H10      126.4220  100.5180  104.7620 H      14  MOL14       0.0284
   8814  H10      127.1510  101.4130  106.4880 H      14  MOL14       0.0385
   8815  H10      125.7360  101.1090  106.9240 H      14  MOL14       0.0385
   8816  H10      124.5640  101.7250  101.5050 H      14  MOL14       0.0276
   8817  H10      123.9360  102.8940  102.4720 H      14  MOL14       0.0276
   8818  H10      122.3890  101.4950  102.7590 H      14  MOL14       0.0266
   8819  H10      123.3450  100.5910  103.8790 H      14  MOL14       0.0266
   8820  H10      123.0730   99.3220  101.2240 H      14  MOL14       0.0270
   8821  H10      121.6490   99.8110  101.9760 H      14  MOL14       0.0270
   8822  H10      123.3160   97.4140  102.8010 H      14  MOL14       0.0377
   8823  H10      121.8830   97.5930  102.1350 H      14  MOL14       0.0377
   8824  H10      101.8660  113.9480   99.4380 H      14  MOL14       0.0263
   8825  H10      101.1030  114.6220  100.8160 H      14  MOL14       0.0263
   8826  H10      103.1090  112.4390  100.6150 H      14  MOL14       0.0265
   8827  H10      102.3710  112.7940  102.1530 H      14  MOL14       0.0265
   8828  H10      103.6940  114.9270  102.2220 H      14  MOL14       0.0265
   8829  H10      104.4670  114.5190  100.7110 H      14  MOL14       0.0265
   8830  H10      105.5040  112.6740  101.5120 H      14  MOL14       0.0265
   8831  H10      104.2810  112.3160  102.7080 H      14  MOL14       0.0265
   8832  H10      105.5720  114.1950  104.1220 H      14  MOL14       0.0265
   8833  H10      106.8450  113.8030  103.0340 H      14  MOL14       0.0265
   8834  H10      105.4500  111.3040  103.9720 H      14  MOL14       0.0265
   8835  H10      105.8170  112.3200  105.3270 H      14  MOL14       0.0265
   8836  H10      107.9800  111.8890  105.2790 H      14  MOL14       0.0265
   8837  H10      108.1060  112.3500  103.5850 H      14  MOL14       0.0265
   8838  H10      107.7150  110.0380  102.8630 H      14  MOL14       0.0265
   8839  H10      107.5080  109.5040  104.5120 H      14  MOL14       0.0265
   8840  H10      109.7350  110.0110  105.0260 H      14  MOL14       0.0266
   8841  H10      109.7930  111.3360  103.9240 H      14  MOL14       0.0266
   8842  H10      110.5680  110.0910  102.1570 H      14  MOL14       0.0298
   8843  H10      110.4030  108.5330  102.9850 H      14  MOL14       0.0298
   8844  H10      111.6420  109.5910  104.8530 H      14  MOL14       0.0697
   8845  H10      112.2870  110.7500  103.6870 H      14  MOL14       0.0697
   8846  H10      100.3590  112.1100  101.3790 H      14  MOL14       0.0230
   8847  H10      100.9490  111.7130   99.7670 H      14  MOL14       0.0230
   8848  H10       99.5800  112.7710   99.9710 H      14  MOL14       0.0230
   8849  H10      115.2380  108.4080  102.5990 H      14  MOL14       0.0411
   8850  H10      114.3740  107.1280  100.1540 H      14  MOL14       0.0238
   8851  H10      115.2410  106.0420  101.1960 H      14  MOL14       0.0238
   8852  H10      115.9810  107.5050  100.7730 H      14  MOL14       0.0238
   8853  H10      112.9640  106.5560  103.3350 H      14  MOL14       0.0273
   8854  H10      114.0800  107.3480  104.3590 H      14  MOL14       0.0273
   8855  H10      114.5850  106.3960  105.8080 H      14  MOL14       0.0240
   8856  H10      115.8590  105.3540  106.3660 H      14  MOL14       0.0240
   8857  H10      114.1970  104.9330  106.6920 H      14  MOL14       0.0240
   8858  H10      149.0030   96.5200  104.8730 H      14  MOL14       0.2951
   8859  H10      148.3710   95.2030  105.9680 H      14  MOL14       0.0377
   8860  H10      147.4980   96.3100  107.0420 H      14  MOL14       0.0377
   8861  H10      149.5060   95.0340  108.7100 H      14  MOL14       0.0270
   8862  H10      148.8830   93.7860  107.6420 H      14  MOL14       0.0270
   8863  H10      146.5590   94.7000  108.1330 H      14  MOL14       0.0266
   8864  H10      147.2410   95.6960  109.2080 H      14  MOL14       0.0266
   8865  H10      147.6090   93.2610  110.5220 H      14  MOL14       0.0276
   8866  H10      146.9650   92.7400  108.9680 H      14  MOL14       0.0276
   8867  H10      143.2980   94.3940  110.9530 H      14  MOL14       0.0385
   8868  H10      143.1270   95.6820  109.7990 H      14  MOL14       0.0385
   8869  H10      145.0900   95.3690  109.1520 H      14  MOL14       0.0284
   8870  H10      144.5790   93.9280  108.2930 H      14  MOL14       0.0284
   8871  H10      137.8070  103.6870  107.1600 H      14  MOL14       0.0276
   8872  H10      138.2180  104.2070  108.7800 H      14  MOL14       0.0276
   8873  H10      136.8720  105.2050  105.8220 H      14  MOL14       0.0240
   8874  H10      137.0800  106.8470  106.3910 H      14  MOL14       0.0240
   8875  H10      135.4560  106.1670  106.3060 H      14  MOL14       0.0240
   8876  H10      134.9580  104.0980  110.4350 H      14  MOL14       0.0735
   8877  H10      136.5730  103.4980  110.4820 H      14  MOL14       0.0735
   8878  H10      135.2550  102.5170  112.1010 H      14  MOL14       0.0765
   8879  H10      134.2990  100.4720  112.0880 H      14  MOL14       0.0266
   8880  H10      134.4400  100.2250  110.3530 H      14  MOL14       0.0266
   8881  H10      133.1780  101.2630  111.0010 H      14  MOL14       0.0266
   8882  H10      135.9110   96.7280  107.6170 H      14  MOL14       0.0421
   8883  H10      133.6380   95.8630  109.5180 H      14  MOL14       0.0284
   8884  H10      134.2280   95.0890  107.9010 H      14  MOL14       0.0284
   8885  H10      131.8240   95.6280  109.0140 H      14  MOL14       0.0385
   8886  H10      132.5510   94.3490  108.3480 H      14  MOL14       0.0385
   8887  H10      135.8840   97.4030  110.4330 H      14  MOL14       0.0276
   8888  H10      134.7560   98.2180  109.4780 H      14  MOL14       0.0276
   8889  H10      136.7270   99.4310  108.2700 H      14  MOL14       0.0266
   8890  H10      137.6290   98.0790  108.4090 H      14  MOL14       0.0266
   8891  H10      138.2210  100.3100  109.4760 H      14  MOL14       0.0270
   8892  H10      138.8980   98.8280  109.8790 H      14  MOL14       0.0270
   8893  H10      138.8440   99.7620  111.9040 H      14  MOL14       0.0377
   8894  H10      137.4650   98.6970  111.9960 H      14  MOL14       0.0377
   8895  H10      145.4260   93.9100  111.1880 H      14  MOL14       0.0421
   8896  H10      123.4330   89.9480  103.7590 H      14  MOL14       0.0540
   8897  H10      122.5830   88.9900  102.5220 H      14  MOL14       0.0540
   8898  H10      124.5230   88.4760  100.2120 H      14  MOL14       0.0280
   8899  H10      124.7820   87.3690  101.6000 H      14  MOL14       0.0280
   8900  H11      126.1290   88.2590  100.9650 H      14  MOL14       0.0280
   8901  H11      126.2330   91.8550  105.1390 H      14  MOL14       0.0735
   8902  H11      127.4150   90.8900  104.2740 H      14  MOL14       0.0735
   8903  H11      126.5130   93.6490  103.7660 H      14  MOL14       0.0765
   8904  H11      127.2370   93.7350  105.6940 H      14  MOL14       0.0266
   8905  H11      128.7970   94.1330  105.0120 H      14  MOL14       0.0266
   8906  H11      128.4910   92.5760  105.6390 H      14  MOL14       0.0266
   8907  H11      131.3580   96.7790  103.2150 H      14  MOL14       0.0421
   8908  H11      134.1200   96.1090  103.0250 H      14  MOL14       0.0284
   8909  H11      133.9140   97.7030  103.6580 H      14  MOL14       0.0284
   8910  H11      132.5020   97.1580  101.1550 H      14  MOL14       0.0385
   8911  H11      134.3150   97.3440  101.1850 H      14  MOL14       0.0385
   8912  H11      131.3160   94.4540  104.1460 H      14  MOL14       0.0276
   8913  H11      132.7950   94.2260  103.4480 H      14  MOL14       0.0276
   8914  H11      132.5350   95.0150  101.4560 H      14  MOL14       0.0266
   8915  H11      131.1180   95.8430  101.5940 H      14  MOL14       0.0266
   8916  H11      131.5010   92.9110  100.8910 H      14  MOL14       0.0270
   8917  H11      131.1600   94.1260   99.7750 H      14  MOL14       0.0270
   8918  H11      129.6730   92.3930   99.7010 H      14  MOL14       0.0377
   8919  H11      128.8550   93.9060   99.7330 H      14  MOL14       0.0377
   8920  H11      147.4600   94.8510  112.7870 H      14  MOL14       0.0540
   8921  H11      145.7250   95.4720  112.4380 H      14  MOL14       0.0540
   8922  H11      148.8450   96.6840  109.8590 H      14  MOL14       0.0280
   8923  H11      148.9570   95.2020  110.7890 H      14  MOL14       0.0280
   8924  H11      149.2700   96.7460  111.5820 H      14  MOL14       0.0280
   8925  H11      143.6470   98.6370  111.6550 H      14  MOL14       0.0735
   8926  H11      144.8300   99.0420  110.5900 H      14  MOL14       0.0735
   8927  H11      142.4230   97.3610  110.0340 H      14  MOL14       0.0765
   8928  H11      141.4550   99.1690  110.4850 H      14  MOL14       0.0266
   8929  H11      141.6910   99.4870  108.8330 H      14  MOL14       0.0266
   8930  H11      142.7630  100.2500  110.0840 H      14  MOL14       0.0266
   8931  H11      141.3240   91.0150  106.6220 H      14  MOL14       0.0421
   8932  H11      139.5670   90.8670  107.8530 H      14  MOL14       0.0284
   8933  H11      140.1240   91.9620  109.0530 H      14  MOL14       0.0284
   8934  H11      137.9440   92.0910  108.0990 H      14  MOL14       0.0385
   8935  H11      138.6020   93.0260  106.7060 H      14  MOL14       0.0385
   8936  H11      141.0880   93.9250  106.7670 H      14  MOL14       0.0276
   8937  H11      140.7600   93.1500  105.3060 H      14  MOL14       0.0276
   8938  H11      142.9880   93.3630  104.6930 H      14  MOL14       0.0266
   8939  H11      143.5900   92.9300  106.2700 H      14  MOL14       0.0266
   8940  H11      142.2160   95.4680  105.5150 H      14  MOL14       0.0270
   8941  H11      143.7180   95.2670  104.7780 H      14  MOL14       0.0270
   8942  H11      143.2760   97.1020  105.5830 H      14  MOL14       0.0377
   8943  H11      144.6910   96.7870  106.4040 H      14  MOL14       0.0377
   8944  H11      150.0270  114.4550  110.8510 H      14  MOL14       0.0263
   8945  H11      148.4820  114.5950  111.6830 H      14  MOL14       0.0263
   8946  H11      148.7000  114.4450  108.6640 H      14  MOL14       0.0265
   8947  H11      147.2310  114.5360  109.6410 H      14  MOL14       0.0265
   8948  H11      149.0460  112.4500  110.6080 H      14  MOL14       0.0265
   8949  H11      148.7310  112.0910  109.0220 H      14  MOL14       0.0265
   8950  H11      146.2390  112.4610  109.4930 H      14  MOL14       0.0265
   8951  H11      146.5770  112.8530  111.0960 H      14  MOL14       0.0265
   8952  H11      146.5560  110.5500  111.7800 H      14  MOL14       0.0265
   8953  H11      147.5400  110.0650  110.5420 H      14  MOL14       0.0265
   8954  H11      145.4360  110.7670  109.1090 H      14  MOL14       0.0265
   8955  H11      144.6610  111.0970  110.6200 H      14  MOL14       0.0265
   8956  H11      145.0310  108.7500  108.8890 H      14  MOL14       0.0265
   8957  H11      143.6430  109.5780  109.4410 H      14  MOL14       0.0265
   8958  H11      143.2780  107.6300  110.3160 H      14  MOL14       0.0265
   8959  H11      144.3830  107.8290  111.5770 H      14  MOL14       0.0265
   8960  H11      144.4560  105.7940  110.2740 H      14  MOL14       0.0266
   8961  H11      145.9190  106.7110  109.8300 H      14  MOL14       0.0266
   8962  H11      144.3960  105.5550  107.9350 H      14  MOL14       0.0298
   8963  H11      145.3360  106.9930  107.7300 H      14  MOL14       0.0298
   8964  H11      143.2090  107.2230  106.7600 H      14  MOL14       0.0697
   8965  H11      143.1280  108.3750  108.0020 H      14  MOL14       0.0697
   8966  H11      149.6940  116.6290  111.4890 H      14  MOL14       0.0230
   8967  H11      147.9780  116.6480  111.0100 H      14  MOL14       0.0230
   8968  H11      149.2500  116.6730  109.7450 H      14  MOL14       0.0230
   8969  H11      139.1450  106.7000  108.8970 H      14  MOL14       0.0411
   8970  H11      140.2700  103.9600  108.6700 H      14  MOL14       0.0238
   8971  H11      139.7700  104.8080  110.0800 H      14  MOL14       0.0238
   8972  H11      141.3710  105.0620  109.5480 H      14  MOL14       0.0238
   8973  H11      139.7920  104.6920  106.7010 H      14  MOL14       0.0273
   8974  H11      138.7770  106.0860  106.4330 H      14  MOL14       0.0273
   8975  H11      137.2510  106.8000  109.2550 H      14  MOL14       0.0240
   8976  H11      136.0790  105.6920  110.0140 H      14  MOL14       0.0240
   8977  H11      135.5510  106.9090  108.9130 H      14  MOL14       0.0240
   8978  H11      144.1170   72.6510  104.7600 H      14  MOL14       0.2951
   8979  H11      144.0880   72.8110  106.9770 H      14  MOL14       0.0377
   8980  H11      145.6800   72.3540  106.3920 H      14  MOL14       0.0377
   8981  H11      145.8530   70.4750  107.8780 H      14  MOL14       0.0270
   8982  H11      144.4120   70.6710  108.6520 H      14  MOL14       0.0270
   8983  H11      145.0820   72.6720  109.6070 H      14  MOL14       0.0266
   8984  H11      146.7370   72.0420  109.0270 H      14  MOL14       0.0266
   8985  H11      147.3490   71.9500  110.8880 H      14  MOL14       0.0276
   8986  H11      145.8110   72.2600  111.6730 H      14  MOL14       0.0276
   8987  H11      148.1320   76.7020  112.8190 H      14  MOL14       0.0385
   8988  H11      149.2480   76.1070  111.5770 H      14  MOL14       0.0385
   8989  H11      147.3200   75.4250  110.2400 H      14  MOL14       0.0284
   8990  H11      146.1770   75.7490  111.4920 H      14  MOL14       0.0284
   8991  H11      136.4480   84.0290  106.5800 H      14  MOL14       0.0276
   8992  H11      135.4850   83.5770  107.9050 H      14  MOL14       0.0276
   8993  H11      134.6340   80.8200  105.3140 H      14  MOL14       0.0240
   8994  H11      133.8950   81.2100  106.8420 H      14  MOL14       0.0240
   8995  H11      135.2510   80.0080  106.7100 H      14  MOL14       0.0240
   8996  H11      139.0520   80.5780  105.0750 H      14  MOL14       0.0735
   8997  H11      139.9920   82.0680  105.1820 H      14  MOL14       0.0735
   8998  H11      139.5010   80.4970  107.6460 H      14  MOL14       0.0765
   8999  H11      142.0410   79.9200  106.7600 H      14  MOL14       0.0266
   9000  H12      141.4000   80.5520  105.2470 H      14  MOL14       0.0266
   9001  H12      140.6900   79.1060  105.9510 H      14  MOL14       0.0266
   9002  H12      144.1610   85.4000  106.8910 H      14  MOL14       0.0421
   9003  H12      145.6410   85.4640  104.5150 H      14  MOL14       0.0284
   9004  H12      146.5190   84.2170  105.3980 H      14  MOL14       0.0284
   9005  H12      145.7180   86.5210  107.0710 H      14  MOL14       0.0385
   9006  H12      146.5460   87.0590  105.6080 H      14  MOL14       0.0385
   9007  H12      143.9430   84.2410  104.2090 H      14  MOL14       0.0276
   9008  H12      143.1860   85.6510  104.9290 H      14  MOL14       0.0276
   9009  H12      142.4990   82.7020  105.5740 H      14  MOL14       0.0266
   9010  H12      141.6630   83.7050  104.4770 H      14  MOL14       0.0266
   9011  H12      140.3710   84.1120  106.4920 H      14  MOL14       0.0270
   9012  H12      141.5340   85.4220  106.5440 H      14  MOL14       0.0270
   9013  H12      141.1570   84.1440  108.6990 H      14  MOL14       0.0377
   9014  H12      142.8650   84.2260  108.2740 H      14  MOL14       0.0377
   9015  H12      148.2970   73.7640  110.9000 H      14  MOL14       0.0412
   9016  H12      150.2220   73.6610  113.8400 H      14  MOL14       0.0341
   9017  H12      149.5700   75.2420  113.3650 H      14  MOL14       0.0341
   9018  H12      150.1660   74.0980  112.1070 H      14  MOL14       0.0341
   9019  H12      140.6270   90.5380  104.2530 H      14  MOL14       0.0540
   9020  H12      140.7340   92.1180  103.3160 H      14  MOL14       0.0540
   9021  H12      138.3200   93.0660  102.6400 H      14  MOL14       0.0280
   9022  H12      138.3920   93.7290  104.2860 H      14  MOL14       0.0280
   9023  H12      136.9940   92.7610  103.7740 H      14  MOL14       0.0280
   9024  H12      137.5190   89.5580  107.1080 H      14  MOL14       0.0735
   9025  H12      137.1780   88.3090  105.9490 H      14  MOL14       0.0735
   9026  H12      138.2980   88.3190  108.3140 H      14  MOL14       0.0765
   9027  H12      139.0590   85.9990  108.5230 H      14  MOL14       0.0266
   9028  H12      139.4200   85.9480  106.8820 H      14  MOL14       0.0266
   9029  H12      137.6950   86.0400  107.4740 H      14  MOL14       0.0266
   9030  H12      147.3360   87.2920  109.3350 H      14  MOL14       0.0421
   9031  H12      148.8320   89.4360  109.6040 H      14  MOL14       0.0284
   9032  H12      147.9650   88.5820  110.8110 H      14  MOL14       0.0284
   9033  H12      147.4370   91.2780  109.8820 H      14  MOL14       0.0385
   9034  H12      148.2270   90.7510  111.3070 H      14  MOL14       0.0385
   9035  H12      145.2370   89.1870  109.5290 H      14  MOL14       0.0276
   9036  H12      145.1040   87.5190  109.1660 H      14  MOL14       0.0276
   9037  H12      145.5200   88.5470  106.6070 H      14  MOL14       0.0266
   9038  H12      144.6460   89.7860  107.4970 H      14  MOL14       0.0266
   9039  H12      143.7240   86.9490  107.8470 H      14  MOL14       0.0270
   9040  H12      143.3200   87.7280  106.3280 H      14  MOL14       0.0270
   9041  H12      142.2120   89.6070  107.7330 H      14  MOL14       0.0377
   9042  H12      142.7710   88.6910  109.1410 H      14  MOL14       0.0377
   9043  H12      141.3300   70.3270  107.5180 H      14  MOL14       0.0540
   9044  H12      142.0350   71.7540  106.6290 H      14  MOL14       0.0540
   9045  H12      138.1580   70.6140  105.6980 H      14  MOL14       0.0280
   9046  H12      138.1510   71.0640  107.4210 H      14  MOL14       0.0280
   9047  H12      139.0100   69.6470  106.9130 H      14  MOL14       0.0280
   9048  H12      139.9750   75.1110  105.3510 H      14  MOL14       0.0735
   9049  H12      140.9490   75.1030  106.8500 H      14  MOL14       0.0735
   9050  H12      142.3370   74.7570  104.4150 H      14  MOL14       0.0765
   9051  H12      142.5080   77.1050  103.5810 H      14  MOL14       0.0266
   9052  H12      141.3880   77.7160  104.7640 H      14  MOL14       0.0266
   9053  H12      140.7760   76.6500  103.5470 H      14  MOL14       0.0266
   9054  H12      146.7150   79.9360  110.0770 H      14  MOL14       0.0421
   9055  H12      148.1790   82.1030  108.6990 H      14  MOL14       0.0284
   9056  H12      147.7820   82.2810  110.3990 H      14  MOL14       0.0284
   9057  H12      145.3210   81.7120  109.5110 H      14  MOL14       0.0385
   9058  H12      146.0920   81.5080  107.9750 H      14  MOL14       0.0385
   9059  H12      148.2470   78.9850  107.9510 H      14  MOL14       0.0276
   9060  H12      147.4090   80.3340  107.3610 H      14  MOL14       0.0276
   9061  H12      145.3490   79.3680  108.8170 H      14  MOL14       0.0266
   9062  H12      146.2550   77.8720  108.6150 H      14  MOL14       0.0266
   9063  H12      146.0270   78.7690  106.0820 H      14  MOL14       0.0270
   9064  H12      144.5490   79.4660  106.7990 H      14  MOL14       0.0270
   9065  H12      145.0800   76.5700  107.3740 H      14  MOL14       0.0377
   9066  H12      145.1570   76.8540  105.6650 H      14  MOL14       0.0377
   9067  H12      121.1700   82.1920  105.8030 H      14  MOL14       0.0263
   9068  H12      122.1130   82.8340  104.4730 H      14  MOL14       0.0263
   9069  H12      121.5830   84.1450  107.0450 H      14  MOL14       0.0265
   9070  H12      121.6960   85.1750  105.6090 H      14  MOL14       0.0265
   9071  H12      123.8480   84.2140  104.9820 H      14  MOL14       0.0265
   9072  H12      123.6200   82.8480  106.0340 H      14  MOL14       0.0265
   9073  H12      123.7360   84.0380  107.9830 H      14  MOL14       0.0265
   9074  H12      123.7130   85.5890  107.0450 H      14  MOL14       0.0265
   9075  H12      125.9020   85.1470  106.1770 H      14  MOL14       0.0265
   9076  H12      126.0710   83.7570  107.1910 H      14  MOL14       0.0265
   9077  H12      125.7070   85.1380  109.2610 H      14  MOL14       0.0265
   9078  H12      124.9680   86.3910  108.3500 H      14  MOL14       0.0265
   9079  H12      127.4200   86.4470  109.3490 H      14  MOL14       0.0265
   9080  H12      126.7320   87.5530  108.1950 H      14  MOL14       0.0265
   9081  H12      127.9790   85.5630  106.5210 H      14  MOL14       0.0265
   9082  H12      129.0070   85.7610  107.9160 H      14  MOL14       0.0265
   9083  H12      128.6500   88.2890  107.5300 H      14  MOL14       0.0266
   9084  H12      128.6520   87.5820  105.8340 H      14  MOL14       0.0266
   9085  H12      130.5320   86.2320  106.8830 H      14  MOL14       0.0298
   9086  H12      130.7000   87.5540  108.0600 H      14  MOL14       0.0298
   9087  H12      131.9800   88.6000  106.5140 H      14  MOL14       0.0697
   9088  H12      130.8890   88.3620  105.1390 H      14  MOL14       0.0697
   9089  H12      119.2070   82.8290  104.8590 H      14  MOL14       0.0230
   9090  H12      120.2410   82.1730  103.6390 H      14  MOL14       0.0230
   9091  H12      119.9110   83.9250  103.6610 H      14  MOL14       0.0230
   9092  H12      133.7350   84.9040  104.4160 H      14  MOL14       0.0411
   9093  H12      131.8720   83.2820  104.8660 H      14  MOL14       0.0238
   9094  H12      131.4150   84.8070  104.2000 H      14  MOL14       0.0238
   9095  H12      131.1000   84.6110  105.8170 H      14  MOL14       0.0238
   9096  H12      133.5600   83.7270  107.2510 H      14  MOL14       0.0273
   9097  H12      134.5490   85.1720  107.0130 H      14  MOL14       0.0273
   9098  H12      137.3460   82.3370  108.0380 H      14  MOL14       0.0240
   9099  H12      136.9370   80.6240  107.9050 H      14  MOL14       0.0240
   9100  H13      135.7690   81.7500  108.6570 H      14  MOL14       0.0240
   9101  O65      134.1260  120.6130  157.1380 O.2    15  MOL15      -0.2510
   9102  O65      134.5960  122.2440  155.7730 O.3    15  MOL15      -0.4806
   9103  C65      133.7710  121.2420  156.1770 C.2    15  MOL15       0.3047
   9104  C65      132.5580  121.1970  155.1390 C.3    15  MOL15       0.0448
   9105  C65      130.9890  120.8970  155.1850 C.3    15  MOL15      -0.0430
   9106  C65      129.7050  121.6860  154.5260 C.3    15  MOL15      -0.0515
   9107  C65      128.2500  121.1650  155.1060 C.3    15  MOL15      -0.0403
   9108  S65      126.0160  125.6240  157.4120 S.3    15  MOL15      -0.0928
   9109  C65      125.5070  123.8930  156.4270 C.3    15  MOL15       0.0050
   9110  C66      125.9950  122.8220  155.2560 C.3    15  MOL15      -0.0305
   9111  C66      136.6930  132.8220  152.9450 C.2    15  MOL15       0.3129
   9112  C66      136.5860  134.4160  152.8070 C.3    15  MOL15       0.0622
   9113  C66      135.9520  135.2930  153.9010 C.3    15  MOL15      -0.0370
   9114  C66      137.9420  135.0650  152.8030 C.3    15  MOL15      -0.0497
   9115  O66      137.2250  132.2100  153.8280 O.2    15  MOL15      -0.2502
   9116  O66      136.0700  132.2190  151.8670 O.3    15  MOL15      -0.4605
   9117  C66      135.8990  130.7890  151.4960 C.3    15  MOL15       0.1290
   9118  C66      134.5460  130.1910  150.9760 C.3    15  MOL15       0.1341
   9119  C66      133.7290  130.0520  152.1980 C.3    15  MOL15      -0.0244
   9120  C67      126.6530  128.6260  149.2570 C.3    15  MOL15       0.0162
   9121  C67      125.6590  128.8080  150.5450 C.3    15  MOL15      -0.0305
   9122  C67      124.7200  129.7310  151.4820 C.3    15  MOL15       0.0050
   9123  S67      123.3340  130.8890  150.9470 S.3    15  MOL15      -0.0928
   9124  C67      127.8270  129.0040  148.1000 C.3    15  MOL15      -0.0403
   9125  C67      129.0610  129.6890  147.2700 C.3    15  MOL15      -0.0515
   9126  C67      130.5240  130.3840  147.1840 C.3    15  MOL15      -0.0429
   9127  C67      132.0390  130.4320  147.7380 C.3    15  MOL15       0.0450
   9128  C67      133.2080  129.8830  148.6900 C.2    15  MOL15       0.3074
   9129  O67      133.5040  130.4630  149.9000 O.3    15  MOL15      -0.4582
   9130  O68      133.8810  129.0090  148.2540 O.2    15  MOL15      -0.2508
   9131  C68      126.6150  121.4830  155.6330 C.3    15  MOL15       0.0162
   9132  C68      131.8220  139.8730  152.9310 C.2    15  MOL15       0.3344
   9133  C68      131.4210  141.1640  152.2140 C.2    15  MOL15       0.0264
   9134  C68      130.1440  141.4850  151.9580 C.2    15  MOL15      -0.0890
   9135  C68      132.4060  142.1560  151.6550 C.3    15  MOL15      -0.0335
   9136  O68      132.9880  139.6720  153.1570 O.2    15  MOL15      -0.2453
   9137  O68      130.8670  138.9580  153.2990 O.3    15  MOL15      -0.4577
   9138  C68      130.7200  137.5180  153.6640 C.3    15  MOL15       0.1293
   9139  C68      130.0450  136.2800  152.8880 C.3    15  MOL15       0.1341
   9140  C69      129.9870  135.3120  154.1060 C.3    15  MOL15      -0.0244
   9141  C69      121.8310  133.3280  151.8710 C.3    15  MOL15       0.0162
   9142  C69      120.5280  133.3960  151.0790 C.3    15  MOL15      -0.0313
   9143  C69      120.4430  134.8230  150.6010 C.3    15  MOL15      -0.0056
   9144  S69      120.2990  135.0380  148.8430 S.3    15  MOL15      -0.1641
   9145  C69      122.2130  134.7450  152.6890 C.3    15  MOL15      -0.0403
   9146  C69      123.4480  135.9060  152.6410 C.3    15  MOL15      -0.0515
   9147  C69      124.8250  136.7890  152.1850 C.3    15  MOL15      -0.0429
   9148  C69      126.2970  137.2490  151.4210 C.3    15  MOL15       0.0450
   9149  C69      127.8370  136.7610  150.8670 C.2    15  MOL15       0.3074
   9150  O70      129.0210  136.3950  151.6780 O.3    15  MOL15      -0.4582
   9151  O70      128.0390  136.7370  149.7000 O.2    15  MOL15      -0.2508
   9152  C70      120.8390  136.7750  148.5800 C.3    15  MOL15      -0.0181
   9153  S70      122.1690  131.6220  152.5300 S.3    15  MOL15      -0.0897
   9154  C70      137.7490  121.9960  153.8640 C.2    15  MOL15       0.3344
   9155  C70      138.2770  120.8780  153.1040 C.2    15  MOL15       0.0264
   9156  C70      137.8250  120.6900  151.8480 C.2    15  MOL15      -0.0890
   9157  C70      139.3630  120.0830  153.7350 C.3    15  MOL15      -0.0335
   9158  O70      138.0220  122.2120  155.0220 O.2    15  MOL15      -0.2453
   9159  O70      136.9550  122.8680  153.2160 O.3    15  MOL15      -0.4577
   9160  C71      137.3190  124.2270  153.2670 C.3    15  MOL15       0.1293
   9161  C71      136.9840  124.9300  154.5340 C.3    15  MOL15       0.1341
   9162  C71      137.2990  126.4120  154.3870 C.3    15  MOL15      -0.0244
   9163  S71      127.7550  126.8010  157.1180 S.3    15  MOL15      -0.0897
   9164  C71      129.1200  126.3130  155.8200 C.3    15  MOL15       0.0162
   9165  C71      129.1800  125.6990  154.3110 C.3    15  MOL15      -0.0305
   9166  C71      128.6200  125.6100  152.7880 C.3    15  MOL15       0.0050
   9167  S71      127.8190  126.1240  151.1910 S.3    15  MOL15      -0.0928
   9168  C71      130.2170  127.2530  156.3030 C.3    15  MOL15      -0.0403
   9169  C71      131.6970  126.9550  155.9880 C.3    15  MOL15      -0.0515
   9170  C72      132.8940  126.3030  156.7360 C.3    15  MOL15      -0.0429
   9171  C72      133.8300  125.1460  156.2800 C.3    15  MOL15       0.0450
   9172  C72      134.5880  125.1130  154.9660 C.2    15  MOL15       0.3074
   9173  O72      135.7910  124.5810  155.2510 O.3    15  MOL15      -0.4582
   9174  O72      134.2650  125.5370  153.9060 O.2    15  MOL15      -0.2508
   9175  S72      126.9310  126.7880  149.5340 S.3    15  MOL15      -0.0897
   9176  C72      142.4110  149.8540  154.4570 C.3    15  MOL15      -0.0559
   9177  C72      141.6600  148.6870  153.8640 C.3    15  MOL15      -0.0533
   9178  C72      140.1680  148.6370  153.5210 C.3    15  MOL15      -0.0531
   9179  C72      139.9300  147.2000  153.0380 C.3    15  MOL15      -0.0531
   9180  C73      138.9320  146.7150  151.9860 C.3    15  MOL15      -0.0531
   9181  C73      139.4710  145.4060  151.3420 C.3    15  MOL15      -0.0531
   9182  C73      138.5120  144.2460  151.5540 C.3    15  MOL15      -0.0531
   9183  C73      138.9730  142.9280  152.1710 C.3    15  MOL15      -0.0530
   9184  C73      137.7100  142.0860  152.2030 C.3    15  MOL15      -0.0500
   9185  C73      137.2710  141.1150  153.2670 C.3    15  MOL15      -0.0185
   9186  C73      136.0840  140.4020  152.7200 C.3    15  MOL15       0.0925
   9187  C73      143.8900  149.4470  154.5580 C.3    15  MOL15      -0.0653
   9188  C73      135.0910  137.5960  154.7480 C.3    15  MOL15       0.0537
   9189  C73      135.3470  139.0610  154.5220 C.2    15  MOL15       0.3099
   9190  O74      135.9630  139.1350  153.3280 O.3    15  MOL15      -0.4644
   9191  O74      135.0490  140.0620  155.1260 O.2    15  MOL15      -0.2505
   9192  C74      134.9980  136.9170  156.1270 C.3    15  MOL15      -0.0523
   9193  C74      135.9510  136.8150  153.7020 C.3    15  MOL15      -0.0394
   9194  C74      136.0200  134.7620  151.4700 C.3    15  MOL15      -0.0497
   9195  O74      111.4210  108.7570  154.5540 O.2    15  MOL15      -0.2510
   9196  O74      112.0120  109.0400  156.7160 O.3    15  MOL15      -0.4806
   9197  C74      112.2240  108.6530  155.4290 C.2    15  MOL15       0.3047
   9198  C74      113.6570  108.2010  155.2850 C.3    15  MOL15       0.0448
   9199  C74      114.0110  107.0750  154.2900 C.3    15  MOL15      -0.0430
   9200  C75      115.1070  107.6150  153.3990 C.3    15  MOL15      -0.0515
   9201  C75      116.0960  106.7370  152.6520 C.3    15  MOL15      -0.0403
   9202  S75      119.9710  109.9770  152.8600 S.3    15  MOL15      -0.0928
   9203  C75      118.4940  109.6140  151.9470 C.3    15  MOL15       0.0050
   9204  C75      117.5350  108.7710  152.7120 C.3    15  MOL15      -0.0305
   9205  C75      119.5910  122.0510  151.9250 C.2    15  MOL15       0.3129
   9206  C75      118.0800  122.3340  151.8290 C.3    15  MOL15       0.0622
   9207  C75      117.3650  121.0440  152.1650 C.3    15  MOL15      -0.0370
   9208  C75      117.8070  123.1750  153.0750 C.3    15  MOL15      -0.0497
   9209  O75      120.2450  122.6800  152.7070 O.2    15  MOL15      -0.2502
   9210  O76      120.1000  120.9700  151.1970 O.3    15  MOL15      -0.4605
   9211  C76      120.0390  120.8830  149.7610 C.3    15  MOL15       0.1290
   9212  C76      120.9210  119.9180  148.9600 C.3    15  MOL15       0.1341
   9213  C76      122.4180  119.6340  148.9720 C.3    15  MOL15      -0.0244
   9214  C76      123.8660  115.6340  152.1800 C.3    15  MOL15       0.0162
   9215  C76      125.4930  116.0820  152.1690 C.3    15  MOL15      -0.0305
   9216  C76      127.0540  116.5770  152.4420 C.3    15  MOL15       0.0050
   9217  S76      128.1570  117.3670  153.6990 S.3    15  MOL15      -0.0928
   9218  C76      123.0020  116.4280  151.2070 C.3    15  MOL15      -0.0403
   9219  C76      121.4820  116.5760  151.6190 C.3    15  MOL15      -0.0515
   9220  C77      120.2380  116.4400  150.6790 C.3    15  MOL15      -0.0429
   9221  C77      120.1980  116.4290  149.1380 C.3    15  MOL15       0.0450
   9222  C77      120.3770  117.6570  148.3910 C.2    15  MOL15       0.3074
   9223  O77      120.4510  118.6210  149.3140 O.3    15  MOL15      -0.4582
   9224  O77      120.4640  117.8050  147.1940 O.2    15  MOL15      -0.2508
   9225  S77      118.8070  106.4210  152.1670 S.3    15  MOL15      -0.0897
   9226  C77      117.2970  107.4480  152.0290 C.3    15  MOL15       0.0162
   9227  C77      135.6380  116.6240  157.7760 C.2    15  MOL15       0.3344
   9228  C77      136.9940  116.7430  158.2360 C.2    15  MOL15       0.0264
   9229  C77      137.8740  117.4580  157.5190 C.2    15  MOL15      -0.0890
   9230  C78      137.2670  115.9860  159.4700 C.3    15  MOL15      -0.0335
   9231  O78      134.9160  115.7120  158.1140 O.2    15  MOL15      -0.2453
   9232  O78      135.2050  117.6050  156.9640 O.3    15  MOL15      -0.4577
   9233  C78      134.0220  117.3450  156.2630 C.3    15  MOL15       0.1293
   9234  C78      132.8070  118.1000  156.5990 C.3    15  MOL15       0.1341
   9235  C78      131.9030  117.8360  155.3070 C.3    15  MOL15      -0.0244
   9236  C78      126.8500  118.1840  156.6380 C.3    15  MOL15       0.0162
   9237  C78      125.4620  118.0900  157.3290 C.3    15  MOL15      -0.0305
   9238  C78      125.2090  118.8230  158.6120 C.3    15  MOL15       0.0050
   9239  S78      124.4150  120.3560  158.2440 S.3    15  MOL15      -0.0928
   9240  C79      127.8380  117.1880  157.1830 C.3    15  MOL15      -0.0403
   9241  C79      128.1960  117.6520  158.6610 C.3    15  MOL15      -0.0515
   9242  C79      129.3750  117.3220  159.7500 C.3    15  MOL15      -0.0429
   9243  C79      130.9610  117.7220  160.0450 C.3    15  MOL15       0.0450
   9244  C79      132.3320  117.5880  159.2010 C.2    15  MOL15       0.3074
   9245  O79      132.3280  118.2860  158.0120 O.3    15  MOL15      -0.4582
   9246  O79      133.2040  116.8660  159.5900 O.2    15  MOL15      -0.2508
   9247  S79      126.1210  121.0840  157.3870 S.3    15  MOL15      -0.0897
   9248  S79      127.0640  118.6520  154.8380 S.3    15  MOL15      -0.0897
   9249  C79      114.8410  109.8990  151.1710 C.2    15  MOL15       0.3344
   9250  C80      114.3160  108.5900  150.7600 C.2    15  MOL15       0.0264
   9251  C80      115.0760  108.0250  149.8470 C.2    15  MOL15      -0.0890
   9252  C80      113.1520  107.8340  151.3490 C.3    15  MOL15      -0.0335
   9253  O80      114.3960  110.4660  152.1340 O.2    15  MOL15      -0.2453
   9254  O80      115.8490  110.5350  150.4720 O.3    15  MOL15      -0.4577
   9255  C80      115.7680  111.9420  150.6630 C.3    15  MOL15       0.1293
   9256  C80      116.6790  112.5470  151.6350 C.3    15  MOL15       0.1341
   9257  C80      116.7130  114.0670  151.3680 C.3    15  MOL15      -0.0244
   9258  S80      120.5870  108.2010  153.6790 S.3    15  MOL15      -0.0897
   9259  C80      121.7310  109.0600  154.7910 C.3    15  MOL15       0.0162
   9260  C81      122.8430  109.5770  153.8330 C.3    15  MOL15      -0.0305
   9261  C81      123.3450  111.0100  153.7950 C.3    15  MOL15       0.0050
   9262  S81      122.4650  111.9970  152.5030 S.3    15  MOL15      -0.0928
   9263  C81      120.9180  110.0540  155.6230 C.3    15  MOL15      -0.0403
   9264  C81      119.4850  109.6880  156.0970 C.3    15  MOL15      -0.0515
   9265  C81      118.3430  110.7710  155.9600 C.3    15  MOL15      -0.0429
   9266  C81      117.2190  111.5220  155.1760 C.3    15  MOL15       0.0450
   9267  C81      117.3030  112.3140  153.8960 C.2    15  MOL15       0.3074
   9268  O81      116.4900  111.8830  152.9120 O.3    15  MOL15      -0.4582
   9269  O81      117.8670  113.3610  153.8050 O.2    15  MOL15      -0.2508
   9270  S82      122.8260  113.9910  151.9610 S.3    15  MOL15      -0.0897
   9271  C82      102.4150  122.8150  149.0760 C.3    15  MOL15      -0.0559
   9272  C82      103.4090  122.8670  150.2030 C.3    15  MOL15      -0.0533
   9273  C82      104.2240  121.5800  150.1770 C.3    15  MOL15      -0.0531
   9274  C82      105.6250  121.8890  149.6500 C.3    15  MOL15      -0.0531
   9275  C82      106.6440  120.7470  149.4010 C.3    15  MOL15      -0.0531
   9276  C82      107.9300  121.3330  149.8990 C.3    15  MOL15      -0.0531
   9277  C82      109.2730  120.7800  150.3060 C.3    15  MOL15      -0.0531
   9278  C82      110.2220  119.7680  149.7400 C.3    15  MOL15      -0.0530
   9279  C82      110.4480  118.6180  150.6830 C.3    15  MOL15      -0.0500
   9280  C83      110.8170  119.0150  152.1140 C.3    15  MOL15      -0.0185
   9281  C83      111.4770  120.3690  152.3350 C.3    15  MOL15       0.0925
   9282  C83      101.5970  124.0400  148.9140 C.3    15  MOL15      -0.0653
   9283  C83      114.9430  121.1440  151.6510 C.3    15  MOL15       0.0537
   9284  C83      113.5700  121.4540  152.1410 C.2    15  MOL15       0.3099
   9285  O83      112.7880  120.4110  151.7940 O.3    15  MOL15      -0.4644
   9286  O83      113.1930  122.4360  152.7420 O.2    15  MOL15      -0.2505
   9287  C83      115.1450  119.7730  151.0020 C.3    15  MOL15      -0.0523
   9288  C83      115.9610  121.1760  152.7650 C.3    15  MOL15      -0.0394
   9289  C83      117.7360  123.0430  150.5210 C.3    15  MOL15      -0.0497
   9290  O84      132.0760   89.8320  158.9690 O.2    15  MOL15      -0.2510
   9291  O84      130.9880   91.4660  160.0640 O.3    15  MOL15      -0.4806
   9292  C84      131.1640   90.5910  159.0270 C.2    15  MOL15       0.3047
   9293  C84      130.0670   90.7890  157.9830 C.3    15  MOL15       0.0448
   9294  C84      130.0970   89.7720  156.7820 C.3    15  MOL15      -0.0430
   9295  C84      129.1830   89.7180  155.4410 C.3    15  MOL15      -0.0516
   9296  C84      128.2340   89.6930  154.1160 C.3    15  MOL15      -0.0411
   9297  S84      124.3040   93.2950  153.8350 S.3    15  MOL15      -0.0928
   9298  C84      124.6420   91.7300  152.9520 C.3    15  MOL15       0.0049
   9299  C84      126.1000   91.5080  153.4250 C.3    15  MOL15      -0.0313
   9300  C85      131.1150  103.1940  157.1910 C.2    15  MOL15       0.3129
   9301  C85      131.7990  103.9470  156.0780 C.3    15  MOL15       0.0622
   9302  C85      131.2460  105.3260  155.6190 C.3    15  MOL15      -0.0370
   9303  C85      133.2490  103.7270  156.3010 C.3    15  MOL15      -0.0497
   9304  O85      131.6350  102.7470  158.1840 O.2    15  MOL15      -0.2502
   9305  O85      129.8290  102.9520  156.8070 O.3    15  MOL15      -0.4605
   9306  C85      129.2980  101.7490  157.3340 C.3    15  MOL15       0.1290
   9307  C85      128.8660  100.7360  156.3510 C.3    15  MOL15       0.1341
   9308  C85      128.5350   99.5550  157.2370 C.3    15  MOL15      -0.0244
   9309  C85      123.1470  101.4340  157.0280 C.3    15  MOL15       0.0162
   9310  C86      121.8320  101.1350  157.7430 C.3    15  MOL15      -0.0305
   9311  C86      120.6810  101.6180  156.8870 C.3    15  MOL15       0.0050
   9312  S86      119.4770  100.4860  156.2340 S.3    15  MOL15      -0.0928
   9313  C86      124.0700  102.1390  157.9640 C.3    15  MOL15      -0.0403
   9314  C86      125.5560  102.0710  157.6580 C.3    15  MOL15      -0.0515
   9315  C86      125.8670  102.7870  156.3400 C.3    15  MOL15      -0.0429
   9316  C86      125.7500  101.9020  155.0980 C.3    15  MOL15       0.0450
   9317  C86      126.6170  100.7210  155.3300 C.2    15  MOL15       0.3074
   9318  O86      127.7420  101.3290  155.7290 O.3    15  MOL15      -0.4582
   9319  O86      126.4210   99.5380  155.2060 O.2    15  MOL15      -0.2508
   9320  S87      126.4570   89.0750  152.0540 S.3    15  MOL15      -0.1607
   9321  C87      126.8140   90.1210  153.4890 C.3    15  MOL15       0.0058
   9322  C87      124.6930   88.8920  152.1010 C.3    15  MOL15      -0.0178
   9323  C87      125.0440  110.0640  156.6930 C.2    15  MOL15       0.3344
   9324  C87      123.9430  110.6100  157.4920 C.2    15  MOL15       0.0264
   9325  C87      123.0110  109.7590  157.9380 C.2    15  MOL15      -0.0890
   9326  C87      123.8850  112.0930  157.7410 C.3    15  MOL15      -0.0335
   9327  O87      125.8550  110.8230  156.2110 O.2    15  MOL15      -0.2453
   9328  O87      125.1440  108.7110  156.4420 O.3    15  MOL15      -0.4577
   9329  C87      126.1890  108.3660  155.5210 C.3    15  MOL15       0.1293
   9330  C88      125.9740  107.0710  154.7630 C.3    15  MOL15       0.1341
   9331  C88      126.9320  105.8370  154.8140 C.3    15  MOL15      -0.0244
   9332  C88      118.9390  102.4950  154.1110 C.3    15  MOL15       0.0162
   9333  C88      117.8120  102.6870  153.0540 C.3    15  MOL15      -0.0305
   9334  C88      117.4160  103.8640  152.1860 C.3    15  MOL15       0.0050
   9335  S88      118.5280  104.7550  151.0690 S.3    15  MOL15      -0.0928
   9336  C88      120.1170  103.4860  154.0450 C.3    15  MOL15      -0.0403
   9337  C88      120.5360  104.3250  155.2460 C.3    15  MOL15      -0.0515
   9338  C88      122.0530  104.4050  155.3270 C.3    15  MOL15      -0.0429
   9339  C88      122.5900  105.4720  154.4100 C.3    15  MOL15       0.0450
   9340  C89      124.0890  105.4590  154.4870 C.2    15  MOL15       0.3074
   9341  O89      124.5590  106.7070  154.7950 O.3    15  MOL15      -0.4582
   9342  O89      124.7350  104.4690  154.2770 O.2    15  MOL15      -0.2508
   9343  S89      118.2940  102.0540  155.7540 S.3    15  MOL15      -0.0897
   9344  C89      133.6250   94.2320  158.7030 C.2    15  MOL15       0.3344
   9345  C89      134.3230   93.1240  158.0660 C.2    15  MOL15       0.0264
   9346  C89      133.5090   92.1310  157.7320 C.2    15  MOL15      -0.0890
   9347  C89      135.7880   93.1060  157.7960 C.3    15  MOL15      -0.0335
   9348  O89      134.2120   95.1510  159.2320 O.2    15  MOL15      -0.2453
   9349  O89      132.2430   94.2200  158.6530 O.3    15  MOL15      -0.4577
   9350  C90      131.6250   95.4560  158.2980 C.3    15  MOL15       0.1293
   9351  C90      130.3420   95.5700  159.0410 C.3    15  MOL15       0.1341
   9352  C90      129.9660   96.9360  159.6780 C.3    15  MOL15      -0.0244
   9353  S90      122.3640   93.9770  154.0100 S.3    15  MOL15      -0.0897
   9354  C90      123.0510   95.5510  154.6030 C.3    15  MOL15       0.0162
   9355  C90      122.2580   96.8470  154.4560 C.3    15  MOL15      -0.0305
   9356  C90      123.2200   97.9540  154.8260 C.3    15  MOL15       0.0050
   9357  S90      122.4870   99.5760  155.0040 S.3    15  MOL15      -0.0928
   9358  C90      123.6020   95.3840  156.0110 C.3    15  MOL15      -0.0403
   9359  C90      125.1330   95.4940  155.9700 C.3    15  MOL15      -0.0515
   9360  C91      125.8870   95.9790  157.1950 C.3    15  MOL15      -0.0429
   9361  C91      127.1320   95.1780  157.5740 C.3    15  MOL15       0.0450
   9362  C91      128.5170   95.7610  157.6310 C.2    15  MOL15       0.3074
   9363  O91      129.2020   94.9360  158.4550 O.3    15  MOL15      -0.4582
   9364  O91      129.0160   96.7300  157.1320 O.2    15  MOL15      -0.2508
   9365  S91      123.8720   99.9420  156.4280 S.3    15  MOL15      -0.0897
   9366  C91      143.2470  113.1210  155.8040 C.3    15  MOL15      -0.0559
   9367  C91      142.1120  113.5620  154.9040 C.3    15  MOL15      -0.0533
   9368  C91      141.0190  112.5170  155.1510 C.3    15  MOL15      -0.0531
   9369  C91      140.0860  112.5030  154.0030 C.3    15  MOL15      -0.0531
   9370  C92      138.7720  111.8010  154.1010 C.3    15  MOL15      -0.0531
   9371  C92      138.0300  112.2490  152.8420 C.3    15  MOL15      -0.0531
   9372  C92      136.5090  112.2450  152.8430 C.3    15  MOL15      -0.0531
   9373  C92      135.7270  111.5270  153.9470 C.3    15  MOL15      -0.0530
   9374  C92      134.4530  112.2190  154.3340 C.3    15  MOL15      -0.0500
   9375  C92      133.3190  111.2450  154.3650 C.3    15  MOL15      -0.0185
   9376  C92      132.2320  111.3770  155.3960 C.3    15  MOL15       0.0925
   9377  C92      144.2740  113.9300  156.5480 C.3    15  MOL15      -0.0653
   9378  C92      132.3280  107.9520  156.6010 C.3    15  MOL15       0.0537
   9379  C92      131.5240  109.1620  156.2570 C.2    15  MOL15       0.3099
   9380  O93      132.3960  110.1600  156.1060 O.3    15  MOL15      -0.4644
   9381  O93      130.3290  109.2330  156.1560 O.2    15  MOL15      -0.2505
   9382  C93      133.8110  108.3520  156.8190 C.3    15  MOL15      -0.0523
   9383  C93      131.9080  106.7450  155.6340 C.3    15  MOL15      -0.0394
   9384  C93      131.4320  103.0910  154.8910 C.3    15  MOL15      -0.0497
   9385 5H93      134.3080  122.5980  154.9310 H      15  MOL15       0.2951
   9386 6H93      132.9790  120.4160  154.5230 H      15  MOL15       0.0377
   9387 7H93      132.7780  122.1220  154.6540 H      15  MOL15       0.0377
   9388 8H93      130.7660  120.6750  156.2030 H      15  MOL15       0.0270
   9389 9H93      130.8610  119.9290  154.6720 H      15  MOL15       0.0270
   9390 0H94      129.6920  121.2090  153.5270 H      15  MOL15       0.0266
   9391 1H94      129.7780  122.7140  154.1950 H      15  MOL15       0.0266
   9392 2H94      128.5820  120.2270  155.5350 H      15  MOL15       0.0276
   9393 3H94      127.8730  120.9690  154.0800 H      15  MOL15       0.0276
   9394 4H94      124.5350  124.2340  156.0950 H      15  MOL15       0.0385
   9395 5H94      125.2680  123.2640  157.2580 H      15  MOL15       0.0385
   9396 6H94      126.5730  123.0260  154.3380 H      15  MOL15       0.0284
   9397 7H94      125.0250  122.5590  154.8570 H      15  MOL15       0.0284
   9398 8H94      136.4860  134.9810  154.7870 H      15  MOL15       0.0276
   9399 9H94      134.9120  135.2010  154.1630 H      15  MOL15       0.0276
   9400 0H95      138.7390  134.3710  152.8250 H      15  MOL15       0.0240
   9401 1H95      138.1660  135.7150  153.6340 H      15  MOL15       0.0240
   9402 2H95      138.0590  135.6840  151.9240 H      15  MOL15       0.0240
   9403 3H95      136.6840  130.4790  150.7990 H      15  MOL15       0.0735
   9404 4H95      136.0990  130.1790  152.3980 H      15  MOL15       0.0735
   9405 5H95      134.8480  129.1770  150.8390 H      15  MOL15       0.0765
   9406 6H95      132.8670  129.5610  151.7970 H      15  MOL15       0.0266
   9407 7H95      133.3250  130.9080  152.7110 H      15  MOL15       0.0266
   9408 8H95      134.3400  129.5200  152.9140 H      15  MOL15       0.0266
   9409 9H95      125.9180  128.3230  148.4820 H      15  MOL15       0.0421
   9410 0H96      126.1950  128.3200  151.3850 H      15  MOL15       0.0284
   9411 1H96      124.9720  128.0120  150.2280 H      15  MOL15       0.0284
   9412 2H96      125.2890  130.2090  152.2860 H      15  MOL15       0.0385
   9413 3H96      124.2940  128.8950  152.0170 H      15  MOL15       0.0385
   9414 4H96      128.3900  128.1280  148.3470 H      15  MOL15       0.0276
   9415 5H96      127.3030  128.6160  147.2170 H      15  MOL15       0.0276
   9416 6H96      128.5680  130.4530  146.6370 H      15  MOL15       0.0266
   9417 7H96      129.1830  128.8230  146.5980 H      15  MOL15       0.0266
   9418 8H96      130.2930  131.4680  147.1010 H      15  MOL15       0.0270
   9419 9H96      130.7290  130.1290  146.1270 H      15  MOL15       0.0270
   9420 0H97      132.4130  131.3250  147.2100 H      15  MOL15       0.0377
   9421 1H97      132.3300  129.6410  147.0270 H      15  MOL15       0.0377
   9422 2H97      126.0830  120.8350  154.9230 H      15  MOL15       0.0421
   9423 3H97      129.8930  142.3560  151.3540 H      15  MOL15       0.0540
   9424 4H97      129.3010  140.8450  152.1900 H      15  MOL15       0.0540
   9425 5H97      132.1910  143.1660  152.0200 H      15  MOL15       0.0280
   9426 6H97      132.2610  142.2530  150.5790 H      15  MOL15       0.0280
   9427 7H97      133.4400  141.8470  151.8250 H      15  MOL15       0.0280
   9428 8H97      131.6700  137.1560  154.0550 H      15  MOL15       0.0735
   9429 9H97      130.0290  137.6300  154.5080 H      15  MOL15       0.0735
   9430 0H98      130.7250  135.7810  152.2520 H      15  MOL15       0.0765
   9431 1H98      130.9820  135.3870  154.5790 H      15  MOL15       0.0266
   9432 2H98      129.8920  134.2420  153.9130 H      15  MOL15       0.0266
   9433 3H98      129.2730  135.5670  154.8990 H      15  MOL15       0.0266
   9434 4H98      122.3500  133.1580  150.9450 H      15  MOL15       0.0421
   9435 5H98      119.6680  133.1580  151.6800 H      15  MOL15       0.0284
   9436 6H98      120.5640  132.6850  150.2340 H      15  MOL15       0.0284
   9437 7H98      121.4010  135.3270  150.7400 H      15  MOL15       0.0377
   9438 8H98      119.6750  135.2600  151.2390 H      15  MOL15       0.0377
   9439 9H98      121.3170  135.3880  152.6200 H      15  MOL15       0.0276
   9440 0H99      122.2380  134.5950  153.7690 H      15  MOL15       0.0276
   9441 1H99      123.9820  135.4480  153.4780 H      15  MOL15       0.0266
   9442 2H99      122.9400  136.7530  153.1500 H      15  MOL15       0.0266
   9443 3H99      125.1310  136.9330  153.2460 H      15  MOL15       0.0270
   9444 4H99      124.3140  137.7130  152.2080 H      15  MOL15       0.0270
   9445 5H99      126.3550  138.2440  151.7970 H      15  MOL15       0.0377
   9446 6H99      126.0670  137.3700  150.3840 H      15  MOL15       0.0377
   9447 7H99      120.0480  137.5110  148.3790 H      15  MOL15       0.0340
   9448 8H99      121.4640  136.8500  147.6990 H      15  MOL15       0.0340
   9449 9H99      121.4550  137.1240  149.4010 H      15  MOL15       0.0340
   9450  H10      138.1720  119.8750  151.2240 H      15  MOL15       0.0540
   9451  H10      137.1220  121.3690  151.3780 H      15  MOL15       0.0540
   9452  H10      138.9460  119.4470  154.5150 H      15  MOL15       0.0280
   9453  H10      140.1550  120.6900  154.1880 H      15  MOL15       0.0280
   9454  H10      139.8470  119.4810  152.9600 H      15  MOL15       0.0280
   9455  H10      138.4010  124.3380  153.1480 H      15  MOL15       0.0735
   9456  H10      136.9210  124.6630  152.3500 H      15  MOL15       0.0735
   9457  H10      137.7240  124.5430  155.2300 H      15  MOL15       0.0765
   9458  H10      136.9930  127.0340  155.2260 H      15  MOL15       0.0266
   9459  H10      136.8740  126.8540  153.4810 H      15  MOL15       0.0266
   9460  H10      138.3830  126.4920  154.3160 H      15  MOL15       0.0266
   9461  H10      129.7150  125.5070  156.1620 H      15  MOL15       0.0421
   9462  H10      130.2030  125.9810  154.1670 H      15  MOL15       0.0284
   9463  H10      129.2060  124.6150  154.4840 H      15  MOL15       0.0284
   9464  H10      128.0760  124.6580  152.7430 H      15  MOL15       0.0385
   9465  H10      129.4100  125.1200  152.2040 H      15  MOL15       0.0385
   9466  H10      130.1080  127.1660  157.3470 H      15  MOL15       0.0276
   9467  H10      129.9550  128.3090  156.1780 H      15  MOL15       0.0276
   9468  H10      132.0170  127.9740  155.9140 H      15  MOL15       0.0266
   9469  H10      131.7210  126.5230  155.0250 H      15  MOL15       0.0266
   9470  H10      132.6960  126.0750  157.7790 H      15  MOL15       0.0270
   9471  H10      133.5880  127.1380  156.8260 H      15  MOL15       0.0270
   9472  H10      133.5470  124.1220  156.4940 H      15  MOL15       0.0377
   9473  H10      134.6400  125.1710  156.9780 H      15  MOL15       0.0377
   9474  H10      142.0200  150.0430  155.4480 H      15  MOL15       0.0263
   9475  H10      142.2530  150.7870  153.9220 H      15  MOL15       0.0263
   9476  H10      141.8260  147.9280  154.6100 H      15  MOL15       0.0265
   9477  H10      142.2150  148.3730  152.9710 H      15  MOL15       0.0265
   9478  H10      139.9210  149.3710  152.7660 H      15  MOL15       0.0265
   9479  H10      139.5310  148.8610  154.3890 H      15  MOL15       0.0265
   9480  H10      139.7020  146.6480  153.9450 H      15  MOL15       0.0265
   9481  H10      140.8980  146.8350  152.6840 H      15  MOL15       0.0265
   9482  H10      138.7530  147.4220  151.1830 H      15  MOL15       0.0265
   9483  H10      137.9370  146.5770  152.4390 H      15  MOL15       0.0265
   9484  H10      140.4830  145.1540  151.6900 H      15  MOL15       0.0265
   9485  H10      139.5890  145.5550  150.2600 H      15  MOL15       0.0265
   9486  H10      138.0450  144.0160  150.5890 H      15  MOL15       0.0265
   9487  H10      137.7040  144.6020  152.2130 H      15  MOL15       0.0265
   9488  H10      139.3390  143.0490  153.1820 H      15  MOL15       0.0265
   9489  H10      139.7870  142.4560  151.6030 H      15  MOL15       0.0265
   9490  H10      137.6540  141.5540  151.2630 H      15  MOL15       0.0266
   9491  H10      136.8750  142.7850  152.1860 H      15  MOL15       0.0266
   9492  H10      136.9600  141.6320  154.1690 H      15  MOL15       0.0298
   9493  H10      137.9620  140.3140  153.5360 H      15  MOL15       0.0298
   9494  H10      136.3160  140.1840  151.6870 H      15  MOL15       0.0697
   9495  H10      135.1470  140.9670  152.7550 H      15  MOL15       0.0697
   9496  H10      144.2730  149.0550  153.6130 H      15  MOL15       0.0230
   9497  H10      144.0320  148.6710  155.3150 H      15  MOL15       0.0230
   9498  H10      144.5650  150.2580  154.8350 H      15  MOL15       0.0230
   9499  H10      134.0400  137.6010  154.4360 H      15  MOL15       0.0411
   9500  H10      135.5100  137.4370  156.9230 H      15  MOL15       0.0238
   9501  H10      135.3890  135.8990  156.1240 H      15  MOL15       0.0238
   9502  H10      133.9600  136.7550  156.4310 H      15  MOL15       0.0238
   9503  H10      136.9530  137.2250  153.7120 H      15  MOL15       0.0273
   9504  H10      135.5710  137.0860  152.7170 H      15  MOL15       0.0273
   9505  H10      135.6680  135.7890  151.4620 H      15  MOL15       0.0240
   9506  H10      135.1940  134.1420  151.1800 H      15  MOL15       0.0240
   9507  H10      136.8000  134.6630  150.7390 H      15  MOL15       0.0240
   9508  H10      112.7890  108.8420  157.2420 H      15  MOL15       0.2951
   9509  H10      114.0370  107.9360  156.2660 H      15  MOL15       0.0377
   9510  H10      114.1210  109.1460  154.9730 H      15  MOL15       0.0377
   9511  H10      113.1560  106.7180  153.7010 H      15  MOL15       0.0270
   9512  H10      114.3870  106.2200  154.8510 H      15  MOL15       0.0270
   9513  H10      115.7870  108.1700  154.0070 H      15  MOL15       0.0266
   9514  H10      114.6490  108.4290  152.8890 H      15  MOL15       0.0266
   9515  H10      115.6970  106.0200  151.9460 H      15  MOL15       0.0276
   9516  H10      116.5430  106.2080  153.4780 H      15  MOL15       0.0276
   9517  H10      118.6160  109.2590  150.9250 H      15  MOL15       0.0385
   9518  H10      118.0490  110.5960  151.8800 H      15  MOL15       0.0385
   9519  H10      116.6110  109.3610  152.7620 H      15  MOL15       0.0284
   9520  H10      117.8560  108.6090  153.7420 H      15  MOL15       0.0284
   9521  H10      117.9790  120.5100  152.8980 H      15  MOL15       0.0276
   9522  H10      117.3240  120.4400  151.2750 H      15  MOL15       0.0276
   9523  H10      117.9160  122.4880  153.9240 H      15  MOL15       0.0240
   9524  H10      116.8120  123.6200  153.1730 H      15  MOL15       0.0240
   9525  H10      118.5380  123.9770  153.1750 H      15  MOL15       0.0240
   9526  H10      120.0570  121.8810  149.3180 H      15  MOL15       0.0735
   9527  H10      119.0590  120.4910  149.5170 H      15  MOL15       0.0735
   9528  H10      120.6790  120.1510  147.9090 H      15  MOL15       0.0765
   9529  H10      122.6190  119.0130  148.0860 H      15  MOL15       0.0266
   9530  H10      122.6650  119.0190  149.8440 H      15  MOL15       0.0266
   9531  H10      123.1160  120.4570  148.9400 H      15  MOL15       0.0266
   9532  H10      123.4550  115.8010  153.1450 H      15  MOL15       0.0421
   9533  H10      125.7950  116.0380  151.1450 H      15  MOL15       0.0284
   9534  H10      125.7650  115.3470  152.9010 H      15  MOL15       0.0284
   9535  H10      127.4330  116.9320  151.4830 H      15  MOL15       0.0385
   9536  H10      127.5610  115.5960  152.3810 H      15  MOL15       0.0385
   9537  H10      123.0590  115.9020  150.2790 H      15  MOL15       0.0276
   9538  H10      123.5460  117.3500  150.9970 H      15  MOL15       0.0276
   9539  H10      121.2510  117.4490  152.2380 H      15  MOL15       0.0266
   9540  H10      121.2640  115.8240  152.3690 H      15  MOL15       0.0266
   9541  H10      119.5050  117.1410  151.0910 H      15  MOL15       0.0270
   9542  H10      119.7730  115.4900  150.9560 H      15  MOL15       0.0270
   9543  H10      119.2640  115.9490  148.8330 H      15  MOL15       0.0377
   9544  H10      121.0020  115.8270  148.7350 H      15  MOL15       0.0377
   9545  H10      117.1260  107.6470  150.9770 H      15  MOL15       0.0421
   9546  H10      137.6380  117.8030  156.5230 H      15  MOL15       0.0540
   9547  H10      138.8960  117.6940  157.7780 H      15  MOL15       0.0540
   9548  H10      137.6140  116.5830  160.3250 H      15  MOL15       0.0280
   9549  H10      138.0030  115.3070  159.1250 H      15  MOL15       0.0280
   9550  H11      136.3980  115.3940  159.7770 H      15  MOL15       0.0280
   9551  H11      134.2310  117.5830  155.2090 H      15  MOL15       0.0735
   9552  H11      133.8090  116.2840  156.3090 H      15  MOL15       0.0735
   9553  H11      133.0090  119.1200  156.3600 H      15  MOL15       0.0765
   9554  H11      132.3360  118.4710  154.5230 H      15  MOL15       0.0266
   9555  H11      130.8310  118.0470  155.3070 H      15  MOL15       0.0266
   9556  H11      131.9520  116.8410  154.8580 H      15  MOL15       0.0266
   9557  H11      127.2500  119.0870  157.0060 H      15  MOL15       0.0421
   9558  H11      125.3480  117.0440  157.5670 H      15  MOL15       0.0284
   9559  H11      124.6120  118.3550  156.7160 H      15  MOL15       0.0284
   9560  H11      126.1210  119.1040  159.1080 H      15  MOL15       0.0385
   9561  H11      124.5170  118.2480  159.2430 H      15  MOL15       0.0385
   9562  H11      128.5810  117.0580  156.3830 H      15  MOL15       0.0276
   9563  H11      127.4960  116.1690  157.2550 H      15  MOL15       0.0276
   9564  H11      127.2950  117.2870  159.0900 H      15  MOL15       0.0266
   9565  H11      127.9980  118.7230  158.7000 H      15  MOL15       0.0266
   9566  H11      129.3420  116.2330  159.8100 H      15  MOL15       0.0270
   9567  H11      128.9550  117.5980  160.7190 H      15  MOL15       0.0270
   9568  H11      131.1610  117.0170  160.8600 H      15  MOL15       0.0377
   9569  H11      130.9850  118.7000  160.5480 H      15  MOL15       0.0377
   9570  H11      114.8940  107.0270  149.4910 H      15  MOL15       0.0540
   9571  H11      115.9830  108.5520  149.5750 H      15  MOL15       0.0540
   9572  H11      112.7580  108.2410  152.2870 H      15  MOL15       0.0280
   9573  H11      113.4870  106.8160  151.5720 H      15  MOL15       0.0280
   9574  H11      112.3480  107.7730  150.6240 H      15  MOL15       0.0280
   9575  H11      115.9310  112.4140  149.7230 H      15  MOL15       0.0735
   9576  H11      114.7400  112.2670  150.8440 H      15  MOL15       0.0735
   9577  H11      117.6830  112.3170  151.3590 H      15  MOL15       0.0765
   9578  H11      117.4600  114.2550  150.5800 H      15  MOL15       0.0266
   9579  H11      117.1090  114.6560  152.1930 H      15  MOL15       0.0266
   9580  H11      115.7760  114.4800  150.9730 H      15  MOL15       0.0266
   9581  H11      122.2090  108.3060  155.4260 H      15  MOL15       0.0421
   9582  H11      123.7280  108.9530  154.0480 H      15  MOL15       0.0284
   9583  H11      122.6350  109.3420  152.7820 H      15  MOL15       0.0284
   9584  H11      124.3770  110.8110  153.4790 H      15  MOL15       0.0385
   9585  H11      123.3270  111.4400  154.8010 H      15  MOL15       0.0385
   9586  H11      120.7650  110.7890  154.8840 H      15  MOL15       0.0276
   9587  H11      121.4920  110.5780  156.3900 H      15  MOL15       0.0276
   9588  H11      119.5390  109.6220  157.2000 H      15  MOL15       0.0266
   9589  H11      119.2640  108.6740  155.7620 H      15  MOL15       0.0266
   9590  H11      118.9820  111.6320  156.0380 H      15  MOL15       0.0270
   9591  H11      117.8630  110.7580  156.9460 H      15  MOL15       0.0270
   9592  H11      117.1850  112.3690  155.8700 H      15  MOL15       0.0377
   9593  H11      116.1810  111.1930  155.2490 H      15  MOL15       0.0377
   9594  H11      101.7680  121.9360  149.1430 H      15  MOL15       0.0263
   9595  H11      102.9550  122.7670  148.1440 H      15  MOL15       0.0263
   9596  H11      102.9010  123.0220  151.1630 H      15  MOL15       0.0265
   9597  H11      104.0510  123.7480  150.0350 H      15  MOL15       0.0265
   9598  H11      103.7110  120.8810  149.5390 H      15  MOL15       0.0265
   9599  H11      104.1950  121.0230  151.1170 H      15  MOL15       0.0265
   9600  H11      106.0410  122.6270  150.3450 H      15  MOL15       0.0265
   9601  H11      105.5180  122.4960  148.7490 H      15  MOL15       0.0265
   9602  H11      106.8210  120.5130  148.3690 H      15  MOL15       0.0265
   9603  H11      106.2980  119.7770  149.7550 H      15  MOL15       0.0265
   9604  H11      107.6620  121.7500  150.8590 H      15  MOL15       0.0265
   9605  H11      108.0970  122.2000  149.2450 H      15  MOL15       0.0265
   9606  H11      109.1350  120.3640  151.2930 H      15  MOL15       0.0265
   9607  H11      109.8090  121.7160  150.4970 H      15  MOL15       0.0265
   9608  H11      111.1940  120.1830  149.8470 H      15  MOL15       0.0265
   9609  H11      110.1510  119.5260  148.6930 H      15  MOL15       0.0265
   9610  H11      111.2540  118.0390  150.2480 H      15  MOL15       0.0266
   9611  H11      109.5350  118.0530  150.7200 H      15  MOL15       0.0266
   9612  H11      111.4700  118.2640  152.5790 H      15  MOL15       0.0298
   9613  H11      109.8880  118.9520  152.6930 H      15  MOL15       0.0298
   9614  H11      111.5300  120.4760  153.4000 H      15  MOL15       0.0697
   9615  H11      110.9320  121.2570  152.0170 H      15  MOL15       0.0697
   9616  H11      100.8110  123.7900  148.2000 H      15  MOL15       0.0230
   9617  H11      102.2260  124.8330  148.4910 H      15  MOL15       0.0230
   9618  H11      101.1770  124.3590  149.8680 H      15  MOL15       0.0230
   9619  H11      115.1540  121.9450  150.9360 H      15  MOL15       0.0411
   9620  H11      115.7680  119.1220  151.6300 H      15  MOL15       0.0238
   9621  H11      115.6850  119.8580  150.0770 H      15  MOL15       0.0238
   9622  H11      114.2260  119.2680  150.7370 H      15  MOL15       0.0238
   9623  H11      115.7790  120.3090  153.4270 H      15  MOL15       0.0273
   9624  H11      115.8380  122.0530  153.4070 H      15  MOL15       0.0273
   9625  H11      116.6570  123.0140  150.3730 H      15  MOL15       0.0240
   9626  H11      118.2400  122.6320  149.6440 H      15  MOL15       0.0240
   9627  H11      118.0070  124.1000  150.5190 H      15  MOL15       0.0240
   9628  H11      130.2590   92.0720  159.9180 H      15  MOL15       0.2951
   9629  H11      130.1620   91.8530  157.7080 H      15  MOL15       0.0377
   9630  H11      129.1110   90.6960  158.5100 H      15  MOL15       0.0377
   9631  H11      130.0060   88.8210  157.3040 H      15  MOL15       0.0270
   9632  H11      131.0750   89.6500  156.3650 H      15  MOL15       0.0270
   9633  H11      129.3820   90.7550  155.2360 H      15  MOL15       0.0266
   9634  H11      128.3770   89.4220  156.0620 H      15  MOL15       0.0266
   9635  H11      127.8970   88.7010  154.3010 H      15  MOL15       0.0276
   9636  H11      128.9830   89.6760  153.3270 H      15  MOL15       0.0276
   9637  H11      124.5490   91.8300  151.8670 H      15  MOL15       0.0385
   9638  H11      123.9790   90.9310  153.2850 H      15  MOL15       0.0385
   9639  H11      125.9750   91.6620  154.4900 H      15  MOL15       0.0284
   9640  H11      126.7200   92.3510  153.0940 H      15  MOL15       0.0284
   9641  H11      130.1710  105.3050  155.8590 H      15  MOL15       0.0276
   9642  H11      131.2030  105.2500  154.5110 H      15  MOL15       0.0276
   9643  H11      133.4930  103.8960  157.3320 H      15  MOL15       0.0240
   9644  H11      133.8630  104.3710  155.6980 H      15  MOL15       0.0240
   9645  H11      133.4210  102.6620  156.1240 H      15  MOL15       0.0240
   9646  H11      129.9810  101.2950  158.0590 H      15  MOL15       0.0735
   9647  H11      128.3650  101.9740  157.8600 H      15  MOL15       0.0735
   9648  H11      129.6200  100.5570  155.5810 H      15  MOL15       0.0765
   9649  H11      127.8580   98.8270  156.7930 H      15  MOL15       0.0266
   9650  H12      128.0530   99.9470  158.1370 H      15  MOL15       0.0266
   9651  H12      129.4430   99.0430  157.5550 H      15  MOL15       0.0266
   9652  H12      123.0200  102.1070  156.1790 H      15  MOL15       0.0421
   9653  H12      121.7940  101.7330  158.6690 H      15  MOL15       0.0284
   9654  H12      121.7570  100.0830  158.0500 H      15  MOL15       0.0284
   9655  H12      121.1000  102.1320  156.0190 H      15  MOL15       0.0385
   9656  H12      120.1330  102.3550  157.4790 H      15  MOL15       0.0385
   9657  H12      123.8900  101.7240  158.9510 H      15  MOL15       0.0276
   9658  H12      123.7110  103.1750  157.9800 H      15  MOL15       0.0276
   9659  H12      125.9300  101.0400  157.6520 H      15  MOL15       0.0266
   9660  H12      126.0720  102.5030  158.5180 H      15  MOL15       0.0266
   9661  H12      126.8830  103.2170  156.3440 H      15  MOL15       0.0270
   9662  H12      125.1840  103.6350  156.2450 H      15  MOL15       0.0270
   9663  H12      126.1850  102.4440  154.2450 H      15  MOL15       0.0377
   9664  H12      124.7320  101.6370  154.8310 H      15  MOL15       0.0377
   9665  H12      126.0930   89.6560  154.1550 H      15  MOL15       0.0412
   9666  H12      124.5180   88.0220  151.4700 H      15  MOL15       0.0341
   9667  H12      124.1750   89.7520  151.6670 H      15  MOL15       0.0341
   9668  H12      124.3430   88.6950  153.1160 H      15  MOL15       0.0341
   9669  H12      123.0870  108.6930  157.7510 H      15  MOL15       0.0540
   9670  H12      122.1220  110.0790  158.4830 H      15  MOL15       0.0540
   9671  H12      123.5930  112.2990  158.7760 H      15  MOL15       0.0280
   9672  H12      123.1380  112.5300  157.0750 H      15  MOL15       0.0280
   9673  H12      124.8450  112.5970  157.5590 H      15  MOL15       0.0280
   9674  H12      126.1670  109.1400  154.7380 H      15  MOL15       0.0735
   9675  H12      127.1680  108.5010  156.0060 H      15  MOL15       0.0735
   9676  H12      126.2040  107.4990  153.7900 H      15  MOL15       0.0765
   9677  H12      126.8780  105.1490  153.9610 H      15  MOL15       0.0266
   9678  H12      126.6300  105.1780  155.6240 H      15  MOL15       0.0266
   9679  H12      127.9960  106.1100  154.8480 H      15  MOL15       0.0266
   9680  H12      119.2970  101.4930  153.8560 H      15  MOL15       0.0421
   9681  H12      116.8500  102.3710  153.4710 H      15  MOL15       0.0284
   9682  H12      118.0310  101.9550  152.3000 H      15  MOL15       0.0284
   9683  H12      116.9640  104.6010  152.8140 H      15  MOL15       0.0385
   9684  H12      116.5870  103.4990  151.5590 H      15  MOL15       0.0385
   9685  H12      119.9630  104.1690  153.2020 H      15  MOL15       0.0276
   9686  H12      121.0170  102.9410  153.7610 H      15  MOL15       0.0276
   9687  H12      120.1300  103.9720  156.1950 H      15  MOL15       0.0266
   9688  H12      120.1430  105.3210  155.0670 H      15  MOL15       0.0266
   9689  H12      122.4960  103.4560  154.9920 H      15  MOL15       0.0270
   9690  H12      122.4130  104.5670  156.3470 H      15  MOL15       0.0270
   9691  H12      122.2520  106.4820  154.6040 H      15  MOL15       0.0377
   9692  H12      122.2860  105.1920  153.3910 H      15  MOL15       0.0377
   9693  H12      133.8320   91.2610  157.2070 H      15  MOL15       0.0540
   9694  H12      132.4590   92.1830  157.9730 H      15  MOL15       0.0540
   9695  H12      136.3180   93.5500  158.6340 H      15  MOL15       0.0280
   9696  H12      136.0470   93.6370  156.8770 H      15  MOL15       0.0280
   9697  H12      136.1410   92.0890  157.6500 H      15  MOL15       0.0280
   9698  H12      132.2900   96.2750  158.5870 H      15  MOL15       0.0735
   9699  H12      131.4690   95.4820  157.2110 H      15  MOL15       0.0735
   9700  H12      130.5510   94.8340  159.8020 H      15  MOL15       0.0765
   9701  H12      129.0990   96.7940  160.3400 H      15  MOL15       0.0266
   9702  H12      129.6650   97.7170  158.9780 H      15  MOL15       0.0266
   9703  H12      130.7870   97.3860  160.2520 H      15  MOL15       0.0266
   9704  H12      123.9390   95.7070  154.0070 H      15  MOL15       0.0421
   9705  H12      121.5290   96.8940  155.2400 H      15  MOL15       0.0284
   9706  H12      121.7330   96.9780  153.4990 H      15  MOL15       0.0284
   9707  H12      124.1000   98.0220  154.1910 H      15  MOL15       0.0385
   9708  H12      123.5980   97.6820  155.8120 H      15  MOL15       0.0385
   9709  H12      123.2370   94.4340  156.3860 H      15  MOL15       0.0276
   9710  H12      123.1790   96.0960  156.7070 H      15  MOL15       0.0276
   9711  H12      125.4050   96.2060  155.1810 H      15  MOL15       0.0266
   9712  H12      125.5010   94.5170  155.6670 H      15  MOL15       0.0266
   9713  H12      125.2200   95.7940  158.0260 H      15  MOL15       0.0270
   9714  H12      126.0400   97.0620  157.0750 H      15  MOL15       0.0270
   9715  H12      127.2220   94.3080  156.9360 H      15  MOL15       0.0377
   9716  H12      127.0220   94.7800  158.5930 H      15  MOL15       0.0377
   9717  H12      143.8440  112.3830  155.2700 H      15  MOL15       0.0263
   9718  H12      142.7210  112.6050  156.5980 H      15  MOL15       0.0263
   9719  H12      142.3860  113.5450  153.8370 H      15  MOL15       0.0265
   9720  H12      141.7330  114.5610  155.1320 H      15  MOL15       0.0265
   9721  H12      140.5040  112.6890  156.0980 H      15  MOL15       0.0265
   9722  H12      141.4460  111.5250  155.2130 H      15  MOL15       0.0265
   9723  H12      140.6540  112.1120  153.1500 H      15  MOL15       0.0265
   9724  H12      139.8130  113.5460  153.8720 H      15  MOL15       0.0265
   9725  H12      138.2650  112.1180  155.0130 H      15  MOL15       0.0265
   9726  H12      138.8930  110.7210  154.2100 H      15  MOL15       0.0265
   9727  H12      138.3880  111.7090  151.9530 H      15  MOL15       0.0265
   9728  H12      138.3070  113.2910  152.6130 H      15  MOL15       0.0265
   9729  H12      136.2340  111.8160  151.8770 H      15  MOL15       0.0265
   9730  H12      136.1960  113.2900  152.8000 H      15  MOL15       0.0265
   9731  H12      136.3090  111.2510  154.8370 H      15  MOL15       0.0265
   9732  H12      135.3280  110.6140  153.5440 H      15  MOL15       0.0265
   9733  H12      134.2060  112.9390  153.5620 H      15  MOL15       0.0266
   9734  H12      134.6270  112.6420  155.3250 H      15  MOL15       0.0266
   9735  H12      133.8170  110.3260  154.6600 H      15  MOL15       0.0298
   9736  H12      132.9180  111.1180  153.3470 H      15  MOL15       0.0298
   9737  H12      131.2930  111.5200  154.8700 H      15  MOL15       0.0697
   9738  H12      132.3480  112.1560  156.1430 H      15  MOL15       0.0697
   9739  H12      145.1210  114.1440  155.9140 H      15  MOL15       0.0230
   9740  H12      144.6530  113.2390  157.3100 H      15  MOL15       0.0230
   9741  H12      143.9390  114.8480  157.0290 H      15  MOL15       0.0230
   9742  H12      131.9510  107.8770  157.5980 H      15  MOL15       0.0411
   9743  H12      134.3970  107.5090  157.1690 H      15  MOL15       0.0238
   9744  H12      133.9260  109.1170  157.5810 H      15  MOL15       0.0238
   9745  H12      134.2740  108.8640  155.9800 H      15  MOL15       0.0238
   9746  H12      132.7190  106.5450  154.9350 H      15  MOL15       0.0273
   9747  H12      131.0910  107.2170  155.0870 H      15  MOL15       0.0273
   9748  H12      130.3600  103.1850  154.7330 H      15  MOL15       0.0240
   9749  H12      131.6640  102.0350  155.0410 H      15  MOL15       0.0240
   9750  H13      131.9860  103.4760  154.0330 H      15  MOL15       0.0240
   9751  O65      122.0930  121.5470  128.0190 O.2    16  MOL16      -0.2510
   9752  O65      122.5470  121.7740  125.9000 O.3    16  MOL16      -0.4806
   9753  C65      122.3860  122.3110  127.1370 C.2    16  MOL16       0.3047
   9754  C65      122.5960  123.8870  126.9860 C.3    16  MOL16       0.0448
   9755  C65      123.2210  125.0740  127.8540 C.3    16  MOL16      -0.0430
   9756  C65      124.2430  126.2990  127.4570 C.3    16  MOL16      -0.0515
   9757  C65      124.8470  127.0990  128.7690 C.3    16  MOL16      -0.0403
   9758  S65      130.2880  126.4110  128.4100 S.3    16  MOL16      -0.0928
   9759  C65      128.8720  127.7530  129.0610 C.3    16  MOL16       0.0050
   9760  C66      127.3530  128.3520  128.7610 C.3    16  MOL16      -0.0305
   9761  C66      128.3210  120.0430  116.5220 C.2    16  MOL16       0.3129
   9762  C66      129.5260  119.9090  115.4720 C.3    16  MOL16       0.0622
   9763  C66      130.9470  119.5040  115.9050 C.3    16  MOL16      -0.0370
   9764  C66      129.2940  118.7870  114.5010 C.3    16  MOL16      -0.0497
   9765  O66      127.9170  119.1960  117.2670 O.2    16  MOL16      -0.2502
   9766  O66      127.7810  121.3150  116.4490 O.3    16  MOL16      -0.4605
   9767  C66      126.6500  121.9530  117.1740 C.3    16  MOL16       0.1290
   9768  C66      126.7170  123.4030  117.7680 C.3    16  MOL16       0.1341
   9769  C66      127.5180  123.2420  118.9990 C.3    16  MOL16      -0.0244
   9770  C67      129.0680  130.6430  120.8920 C.3    16  MOL16       0.0162
   9771  C67      130.2300  130.5100  122.0370 C.3    16  MOL16      -0.0305
   9772  C67      131.7860  130.4230  122.4630 C.3    16  MOL16       0.0050
   9773  S67      133.1900  131.5730  121.9570 S.3    16  MOL16      -0.0928
   9774  C67      128.2830  130.4520  119.4060 C.3    16  MOL16      -0.0403
   9775  C67      127.8230  129.9460  117.9180 C.3    16  MOL16      -0.0515
   9776  C67      127.5370  128.7890  116.8180 C.3    16  MOL16      -0.0429
   9777  C67      126.9820  127.3030  116.5240 C.3    16  MOL16       0.0450
   9778  C67      126.3140  125.9280  117.0110 C.2    16  MOL16       0.3074
   9779  O67      127.0610  124.8170  117.3220 O.3    16  MOL16      -0.4582
   9780  O68      125.1290  125.8780  116.9950 O.2    16  MOL16      -0.2508
   9781  C68      126.1590  127.9050  129.5930 C.3    16  MOL16       0.0162
   9782  C68      136.2210  122.3130  114.0990 C.2    16  MOL16       0.3344
   9783  C68      137.1320  122.8280  112.9810 C.2    16  MOL16       0.0264
   9784  C68      137.9540  123.8760  113.1400 C.2    16  MOL16      -0.0890
   9785  C68      137.1410  122.2730  111.5820 C.3    16  MOL16      -0.0335
   9786  O68      135.5370  121.3440  113.8910 O.2    16  MOL16      -0.2453
   9787  O68      136.1800  122.9540  115.3120 O.3    16  MOL16      -0.4577
   9788  C68      135.3140  123.1010  116.5180 C.3    16  MOL16       0.1293
   9789  C68      134.4390  124.3360  117.0650 C.3    16  MOL16       0.1341
   9790  C69      134.2100  123.7750  118.4990 C.3    16  MOL16      -0.0244
   9791  C69      136.1840  131.6230  121.6550 C.3    16  MOL16       0.0162
   9792  C69      136.6220  133.0860  121.6310 C.3    16  MOL16      -0.0313
   9793  C69      137.5600  133.1860  120.4550 C.3    16  MOL16      -0.0056
   9794  S69      137.1200  134.3890  119.2230 S.3    16  MOL16      -0.1641
   9795  C69      137.3660  130.5440  121.1440 C.3    16  MOL16      -0.0403
   9796  C69      137.5670  129.4410  119.8720 C.3    16  MOL16      -0.0515
   9797  C69      137.3250  128.5510  118.4450 C.3    16  MOL16      -0.0429
   9798  C69      136.5950  127.8700  117.0440 C.3    16  MOL16       0.0450
   9799  C69      135.1950  127.1830  116.3470 C.2    16  MOL16       0.3074
   9800  O70      134.6030  125.8530  116.6210 O.3    16  MOL16      -0.4582
   9801  O70      134.6200  127.7930  115.5100 O.2    16  MOL16      -0.2508
   9802  C70      138.0420  133.8300  117.7340 C.3    16  MOL16      -0.0181
   9803  S70      134.9720  131.2710  123.0220 S.3    16  MOL16      -0.0897
   9804  C70      119.9490  120.7240  123.4920 C.2    16  MOL16       0.3344
   9805  C70      118.5320  121.0380  123.4760 C.2    16  MOL16       0.0264
   9806  C70      118.1460  122.2190  122.9550 C.2    16  MOL16      -0.0890
   9807  C70      117.5990  119.9780  123.9420 C.3    16  MOL16      -0.0335
   9808  O70      120.4140  119.7330  124.0060 O.2    16  MOL16      -0.2453
   9809  O70      120.7780  121.5650  122.8470 O.3    16  MOL16      -0.4577
   9810  C71      121.6300  121.0040  121.8750 C.3    16  MOL16       0.1293
   9811  C71      122.8260  120.2990  122.4070 C.3    16  MOL16       0.1341
   9812  C71      123.7200  119.8800  121.2480 C.3    16  MOL16      -0.0244
   9813  S71      130.1380  125.0930  126.7570 S.3    16  MOL16      -0.0897
   9814  C71      128.5440  125.0160  125.6420 C.3    16  MOL16       0.0162
   9815  C71      127.4670  126.0640  125.0100 C.3    16  MOL16      -0.0305
   9816  C71      127.1100  127.4790  124.2960 C.3    16  MOL16       0.0050
   9817  S71      127.3070  129.0060  123.2540 S.3    16  MOL16      -0.0928
   9818  C71      128.8570  123.7150  124.9160 C.3    16  MOL16      -0.0403
   9819  C71      127.7240  122.8820  124.2820 C.3    16  MOL16      -0.0515
   9820  C72      126.8850  121.6370  124.6880 C.3    16  MOL16      -0.0429
   9821  C72      125.3390  121.4600  124.7270 C.3    16  MOL16       0.0450
   9822  C72      124.4040  121.7560  123.5690 C.2    16  MOL16       0.3074
   9823  O72      123.4730  120.7830  123.5930 O.3    16  MOL16      -0.4582
   9824  O72      124.4860  122.6000  122.7390 O.2    16  MOL16      -0.2508
   9825  S72      127.6400  130.6070  122.1140 S.3    16  MOL16      -0.0897
   9826  C72      138.7120  111.6080  104.4410 C.3    16  MOL16      -0.0559
   9827  C72      138.0030  112.7670  105.0950 C.3    16  MOL16      -0.0533
   9828  C72      138.6250  114.1010  105.5200 C.3    16  MOL16      -0.0531
   9829  C72      137.4820  114.8620  106.2040 C.3    16  MOL16      -0.0531
   9830  C73      137.2400  116.3720  106.2300 C.3    16  MOL16      -0.0531
   9831  C73      135.7180  116.6380  106.4050 C.3    16  MOL16      -0.0531
   9832  C73      135.4350  117.4300  107.6710 C.3    16  MOL16      -0.0531
   9833  C73      134.4340  116.9400  108.7150 C.3    16  MOL16      -0.0530
   9834  C73      134.4810  118.0130  109.7890 C.3    16  MOL16      -0.0500
   9835  C73      134.3930  117.8340  111.2810 C.3    16  MOL16      -0.0185
   9836  C73      134.2750  119.2000  111.8610 C.3    16  MOL16       0.0925
   9837  C73      137.6590  110.5260  104.1510 C.3    16  MOL16      -0.0653
   9838  C73      133.4680  119.1560  115.3710 C.3    16  MOL16       0.0537
   9839  C73      134.3500  118.8340  114.1960 C.2    16  MOL16       0.3099
   9840  O74      133.6180  119.1370  113.1080 O.3    16  MOL16      -0.4644
   9841  O74      135.4960  118.4740  114.0870 O.2    16  MOL16      -0.2505
   9842  C74      133.5370  118.4610  116.7440 C.3    16  MOL16      -0.0523
   9843  C74      132.0180  119.3440  114.8170 C.3    16  MOL16      -0.0394
   9844  C74      129.5730  121.1260  114.6090 C.3    16  MOL16      -0.0497
   9845  O74      124.2170  142.2450  143.1790 O.2    16  MOL16      -0.2510
   9846  O74      124.9500  140.3570  144.1780 O.3    16  MOL16      -0.4806
   9847  C74      124.0490  141.1060  143.4870 C.2    16  MOL16       0.3047
   9848  C74      122.8920  140.2270  143.0820 C.3    16  MOL16       0.0448
   9849  C74      121.4710  140.8220  142.9880 C.3    16  MOL16      -0.0430
   9850  C75      120.9520  140.4850  141.6090 C.3    16  MOL16      -0.0515
   9851  C75      119.4760  140.4040  141.2590 C.3    16  MOL16      -0.0403
   9852  S75      119.9410  136.7920  137.7540 S.3    16  MOL16      -0.0928
   9853  C75      120.1000  138.5410  137.9930 C.3    16  MOL16       0.0050
   9854  C75      120.2690  138.9160  139.4240 C.3    16  MOL16      -0.0305
   9855  C75      128.8890  135.3850  129.7070 C.2    16  MOL16       0.3129
   9856  C75      129.8690  136.5090  130.0910 C.3    16  MOL16       0.0622
   9857  C75      129.4050  137.0650  131.4200 C.3    16  MOL16      -0.0370
   9858  C75      131.1290  135.7460  130.4960 C.3    16  MOL16      -0.0497
   9859  O75      129.3180  134.2770  129.5550 O.2    16  MOL16      -0.2502
   9860  O76      127.5230  135.6850  129.6960 O.3    16  MOL16      -0.4605
   9861  C76      126.9360  136.6740  128.8310 C.3    16  MOL16       0.1290
   9862  C76      125.4300  136.7240  128.5450 C.3    16  MOL16       0.1341
   9863  C76      124.4260  135.6640  128.1110 C.3    16  MOL16      -0.0244
   9864  C76      121.8760  133.2790  132.1360 C.3    16  MOL16       0.0162
   9865  C76      121.3450  131.9990  131.1720 C.3    16  MOL16      -0.0305
   9866  C76      120.9950  130.5750  130.3950 C.3    16  MOL16       0.0050
   9867  S76      121.4900  128.7970  130.2690 S.3    16  MOL16      -0.0928
   9868  C76      122.5590  134.3950  131.3550 C.3    16  MOL16      -0.0403
   9869  C76      123.6370  135.2250  132.1630 C.3    16  MOL16      -0.0515
   9870  C77      123.8320  136.7770  132.1460 C.3    16  MOL16      -0.0429
   9871  C77      123.2510  137.8060  131.1540 C.3    16  MOL16       0.0450
   9872  C77      123.7940  137.9230  129.8170 C.2    16  MOL16       0.3074
   9873  O77      124.8390  137.0880  129.7880 O.3    16  MOL16      -0.4582
   9874  O77      123.3980  138.6040  128.9000 O.2    16  MOL16      -0.2508
   9875  S77      117.6100  138.7750  140.0150 S.3    16  MOL16      -0.0897
   9876  C77      119.1340  139.7840  139.9040 C.3    16  MOL16       0.0162
   9877  C77      118.5270  120.7750  130.3190 C.2    16  MOL16       0.3344
   9878  C77      118.0740  119.4530  129.9850 C.2    16  MOL16       0.0264
   9879  C77      117.8690  119.1300  128.6990 C.2    16  MOL16      -0.0890
   9880  C78      117.8340  118.5970  131.1600 C.3    16  MOL16      -0.0335
   9881  O78      118.3540  121.2630  131.4140 O.2    16  MOL16      -0.2453
   9882  O78      119.1840  121.4330  129.3470 O.3    16  MOL16      -0.4577
   9883  C78      119.3460  122.8100  129.5400 C.3    16  MOL16       0.1293
   9884  C78      120.6900  123.3470  129.7890 C.3    16  MOL16       0.1341
   9885  C78      120.4730  124.9010  129.4790 C.3    16  MOL16      -0.0244
   9886  C78      123.9340  127.7080  132.2320 C.3    16  MOL16       0.0162
   9887  C78      124.8670  128.3040  133.3200 C.3    16  MOL16      -0.0305
   9888  C78      126.0490  127.5230  133.8090 C.3    16  MOL16       0.0050
   9889  S78      127.4850  128.0560  132.9320 S.3    16  MOL16      -0.0928
   9890  C79      122.8680  126.8150  132.8060 C.3    16  MOL16      -0.0403
   9891  C79      123.5970  125.5060  133.3390 C.3    16  MOL16      -0.0515
   9892  C79      123.1430  123.9940  133.7750 C.3    16  MOL16      -0.0429
   9893  C79      122.7160  122.5560  133.0610 C.3    16  MOL16       0.0450
   9894  C79      121.5600  122.1130  132.0210 C.2    16  MOL16       0.3074
   9895  O79      121.6300  122.7520  130.8010 O.3    16  MOL16      -0.4582
   9896  O79      120.7020  121.3550  132.3690 O.2    16  MOL16      -0.2508
   9897  S79      126.7970  127.2120  131.2040 S.3    16  MOL16      -0.0897
   9898  S79      123.4800  128.6250  130.6640 S.3    16  MOL16      -0.0897
   9899  C79      121.9560  141.6890  138.8170 C.2    16  MOL16       0.3344
   9900  C80      121.0900  142.5910  139.5870 C.2    16  MOL16       0.0264
   9901  C80      119.9080  142.7270  139.0260 C.2    16  MOL16      -0.0890
   9902  C80      121.3650  143.2140  140.9320 C.3    16  MOL16      -0.0335
   9903  O80      122.9920  141.2880  139.2790 O.2    16  MOL16      -0.2453
   9904  O80      121.6310  141.2750  137.5390 O.3    16  MOL16      -0.4577
   9905  C80      122.8090  140.9450  136.8140 C.3    16  MOL16       0.1293
   9906  C80      123.1560  139.5280  136.6960 C.3    16  MOL16       0.1341
   9907  C80      124.1810  139.3870  135.5510 C.3    16  MOL16      -0.0244
   9908  S80      118.5900  136.1440  139.1540 S.3    16  MOL16      -0.0897
   9909  C80      119.0590  134.4170  138.8710 C.3    16  MOL16       0.0162
   9910  C81      118.4890  134.1160  137.4560 C.3    16  MOL16      -0.0305
   9911  C81      119.2880  133.4980  136.3220 C.3    16  MOL16       0.0050
   9912  S81      120.0020  134.7950  135.2150 S.3    16  MOL16      -0.0928
   9913  C81      120.5620  134.2910  139.1320 C.3    16  MOL16      -0.0403
   9914  C81      121.2300  135.1130  140.2670 C.3    16  MOL16      -0.0515
   9915  C81      122.6010  135.8390  139.9700 C.3    16  MOL16      -0.0429
   9916  C81      123.4620  137.0340  139.4480 C.3    16  MOL16       0.0450
   9917  C81      123.5210  137.6490  138.0730 C.2    16  MOL16       0.3074
   9918  O81      123.2480  138.9680  138.0330 O.3    16  MOL16      -0.4582
   9919  O81      123.9760  137.0930  137.1210 O.2    16  MOL16      -0.2508
   9920  S82      121.1050  134.5010  133.4560 S.3    16  MOL16      -0.0897
   9921  C82      137.4920  149.7730  134.4690 C.3    16  MOL16      -0.0559
   9922  C82      137.4380  148.3000  134.7660 C.3    16  MOL16      -0.0533
   9923  C82      136.0250  147.9590  135.2200 C.3    16  MOL16      -0.0531
   9924  C82      135.3100  147.2050  134.0990 C.3    16  MOL16      -0.0531
   9925  C82      133.8110  146.8300  134.2310 C.3    16  MOL16      -0.0531
   9926  C82      133.7620  145.4470  133.6570 C.3    16  MOL16      -0.0531
   9927  C82      132.7880  144.2960  133.7160 C.3    16  MOL16      -0.0531
   9928  C82      131.3030  144.1530  133.5860 C.3    16  MOL16      -0.0530
   9929  C82      130.6780  143.5950  134.8360 C.3    16  MOL16      -0.0500
   9930  C83      131.3340  142.3220  135.3760 C.3    16  MOL16      -0.0185
   9931  C83      132.0900  141.4340  134.3960 C.3    16  MOL16       0.0925
   9932  C83      138.7880  150.2490  133.9310 C.3    16  MOL16      -0.0653
   9933  C83      130.5690  139.1680  132.0230 C.3    16  MOL16       0.0537
   9934  C83      131.7210  139.8070  132.7200 C.2    16  MOL16       0.3099
   9935  O83      131.2160  140.8080  133.4710 O.3    16  MOL16      -0.4644
   9936  O83      132.8950  139.5100  132.6540 O.2    16  MOL16      -0.2505
   9937  C83      129.1780  139.6990  132.3730 C.3    16  MOL16      -0.0523
   9938  C83      130.4820  137.6900  132.3140 C.3    16  MOL16      -0.0394
   9939  C83      130.0810  137.4740  128.9280 C.3    16  MOL16      -0.0497
   9940  O84      100.6720  127.7220  149.4200 O.2    16  MOL16      -0.2510
   9941  O84      102.9040  127.5080  149.5640 O.3    16  MOL16      -0.4806
   9942  C84      101.7510  128.2140  149.3580 C.2    16  MOL16       0.3047
   9943  C84      102.0810  129.6620  149.0020 C.3    16  MOL16       0.0448
   9944  C84      100.8340  130.6090  148.8380 C.3    16  MOL16      -0.0430
   9945  C84      100.7620  132.1620  148.3680 C.3    16  MOL16      -0.0516
   9946  C84      100.7360  133.7240  147.9050 C.3    16  MOL16      -0.0411
   9947  S84      105.4330  136.1270  147.0840 S.3    16  MOL16      -0.0928
   9948  C84      103.7320  136.7450  147.3480 C.3    16  MOL16       0.0049
   9949  C84      102.9730  135.4040  147.1930 C.3    16  MOL16      -0.0313
   9950  C85      110.5750  127.0450  140.2490 C.2    16  MOL16       0.3129
   9951  C85      110.3500  127.1150  138.7600 C.3    16  MOL16       0.0622
   9952  C85      111.5070  127.5590  137.8210 C.3    16  MOL16      -0.0370
   9953  C85      109.4990  125.9420  138.4440 C.3    16  MOL16      -0.0497
   9954  O85      110.3440  126.1030  140.9680 O.2    16  MOL16      -0.2502
   9955  O85      110.9270  128.2890  140.6820 O.3    16  MOL16      -0.4605
   9956  C85      110.5060  128.5690  142.0040 C.3    16  MOL16       0.1290
   9957  C85      109.5920  129.7160  142.1740 C.3    16  MOL16       0.1341
   9958  C85      109.2190  129.6120  143.6360 C.3    16  MOL16      -0.0244
   9959  C85      113.4180  133.3710  144.5500 C.3    16  MOL16       0.0162
   9960  C86      114.1670  133.9380  145.7540 C.3    16  MOL16      -0.0305
   9961  C86      114.8130  135.2510  145.3640 C.3    16  MOL16       0.0050
   9962  S86      114.3470  136.7770  146.1450 S.3    16  MOL16      -0.0928
   9963  C86      113.8210  131.9510  144.3410 C.3    16  MOL16      -0.0403
   9964  C86      112.8610  131.0640  143.5660 C.3    16  MOL16      -0.0515
   9965  C86      112.7280  131.5500  142.1200 C.3    16  MOL16      -0.0429
   9966  C86      111.6430  132.6070  141.9070 C.3    16  MOL16       0.0450
   9967  C86      110.3810  132.0410  142.4430 C.2    16  MOL16       0.3074
   9968  O86      110.3960  130.8360  141.8560 O.3    16  MOL16      -0.4582
   9969  O86      109.5460  132.4900  143.1860 O.2    16  MOL16      -0.2508
   9970  S87      100.4190  136.4880  147.6730 S.3    16  MOL16      -0.1607
   9971  C87      101.5710  135.0980  147.8120 C.3    16  MOL16       0.0058
   9972  C87      101.2360  137.7960  148.5500 C.3    16  MOL16      -0.0178
   9973  C87      118.7900  130.5480  138.1190 C.2    16  MOL16       0.3344
   9974  C87      120.0950  130.7420  138.7580 C.2    16  MOL16       0.0264
   9975  C87      120.1210  131.3040  139.9730 C.2    16  MOL16      -0.0890
   9976  C87      121.3410  130.3420  138.0150 C.3    16  MOL16      -0.0335
   9977  O87      118.7460  130.1160  136.9890 O.2    16  MOL16      -0.2453
   9978  O87      117.6200  130.8940  138.7630 O.3    16  MOL16      -0.4577
   9979  C87      116.4490  130.7820  137.9410 C.3    16  MOL16       0.1293
   9980  C88      115.2940  131.6770  138.3460 C.3    16  MOL16       0.1341
   9981  C88      113.8740  131.1710  138.7580 C.3    16  MOL16      -0.0244
   9982  C88      115.3290  138.1660  143.7080 C.3    16  MOL16       0.0162
   9983  C88      115.6650  139.6450  143.3580 C.3    16  MOL16      -0.0305
   9984  C88      116.4280  140.2750  142.2110 C.3    16  MOL16       0.0050
   9985  S88      116.0780  140.0070  140.4550 S.3    16  MOL16      -0.0928
   9986  C88      115.4250  137.1490  142.5530 C.3    16  MOL16      -0.0403
   9987  C88      116.2980  135.9040  142.6430 C.3    16  MOL16      -0.0515
   9988  C88      115.5840  134.7150  142.0160 C.3    16  MOL16      -0.0429
   9989  C88      115.7500  134.7090  140.5190 C.3    16  MOL16       0.0450
   9990  C89      114.9730  133.5540  139.9580 C.2    16  MOL16       0.3074
   9991  O89      115.7830  132.7710  139.1810 O.3    16  MOL16      -0.4582
   9992  O89      113.8020  133.4000  140.1740 O.2    16  MOL16      -0.2508
   9993  S89      115.9730  137.6630  145.3330 S.3    16  MOL16      -0.0897
   9994  C89      103.0650  125.9140  145.8380 C.2    16  MOL16       0.3344
   9995  C89      101.6130  126.0200  145.8250 C.2    16  MOL16       0.0264
   9996  C89      101.1670  127.0260  146.5660 C.2    16  MOL16      -0.0890
   9997  C89      100.7160  125.1160  145.0510 C.3    16  MOL16      -0.0335
   9998  O89      103.6500  124.9640  145.3640 O.2    16  MOL16      -0.2453
   9999  O89      103.7700  126.9690  146.3850 O.3    16  MOL16      -0.4577
  10000  C90      104.8950  127.4210  145.6300 C.3    16  MOL16       0.1293
  10001  C90      105.9480  127.8670  146.5790 C.3    16  MOL16       0.1341
  10002  C90      107.4240  127.4730  146.2960 C.3    16  MOL16      -0.0244
  10003  S90      107.0460  137.3180  147.5750 S.3    16  MOL16      -0.0897
  10004  C90      108.0960  136.1270  146.6920 C.3    16  MOL16       0.0162
  10005  C90      109.4380  136.5630  146.1090 C.3    16  MOL16      -0.0305
  10006  C90      109.9050  135.4020  145.2580 C.3    16  MOL16       0.0050
  10007  S90      111.5860  135.5210  144.6590 S.3    16  MOL16      -0.0928
  10008  C90      108.2200  134.8420  147.4940 C.3    16  MOL16      -0.0403
  10009  C90      107.4740  133.7160  146.7640 C.3    16  MOL16      -0.0515
  10010  C91      107.9120  132.2740  146.9540 C.3    16  MOL16      -0.0429
  10011  C91      106.7930  131.2620  147.1900 C.3    16  MOL16       0.0450
  10012  C91      106.5190  130.0910  146.2870 C.2    16  MOL16       0.3074
  10013  O91      105.8510  129.2090  147.0640 O.3    16  MOL16      -0.4582
  10014  O91      106.7910  129.8610  145.1430 O.2    16  MOL16      -0.2508
  10015  S91      111.6760  133.5070  144.7930 S.3    16  MOL16      -0.0897
  10016  C91      111.0820  117.0920  128.0700 C.3    16  MOL16      -0.0559
  10017  C91      111.6700  118.4290  127.6710 C.3    16  MOL16      -0.0533
  10018  C91      111.5580  119.2750  128.9420 C.3    16  MOL16      -0.0531
  10019  C91      111.6000  120.7100  128.5820 C.3    16  MOL16      -0.0531
  10020  C92      111.8070  121.7510  129.6330 C.3    16  MOL16      -0.0531
  10021  C92      112.0530  123.0280  128.8300 C.3    16  MOL16      -0.0531
  10022  C92      112.8580  124.1520  129.4630 C.3    16  MOL16      -0.0531
  10023  C92      113.1590  124.1520  130.9650 C.3    16  MOL16      -0.0530
  10024  C92      114.5070  124.7120  131.3130 C.3    16  MOL16      -0.0500
  10025  C92      114.3860  125.7140  132.4160 C.3    16  MOL16      -0.0185
  10026  C92      115.4610  125.8260  133.4620 C.3    16  MOL16       0.0925
  10027  C92      111.4340  115.6990  127.6250 C.3    16  MOL16      -0.0653
  10028  C92      113.2920  125.6270  136.3680 C.3    16  MOL16       0.0537
  10029  C92      114.4990  126.2140  135.7140 C.2    16  MOL16       0.3099
  10030  O93      114.7300  125.4770  134.6260 O.3    16  MOL16      -0.4644
  10031  O93      115.1480  127.1480  136.0980 O.2    16  MOL16      -0.2505
  10032  C93      112.8900  124.3140  135.6450 C.3    16  MOL16      -0.0523
  10033  C93      112.2310  126.7910  136.6640 C.3    16  MOL16      -0.0394
  10034  C93      109.4410  128.3170  138.6690 C.3    16  MOL16      -0.0497
  10035 5H93      122.6430  122.4630  125.2420 H      16  MOL16       0.2951
  10036 6H93      121.5450  124.1220  126.8960 H      16  MOL16       0.0377
  10037 7H93      122.9890  123.8620  125.9940 H      16  MOL16       0.0377
  10038 8H93      123.5640  124.6220  128.7560 H      16  MOL16       0.0270
  10039 9H93      122.3610  125.6840  128.1780 H      16  MOL16       0.0270
  10040 0H94      123.5060  127.0450  127.1040 H      16  MOL16       0.0266
  10041 1H94      124.8530  126.2640  126.5630 H      16  MOL16       0.0266
  10042 2H94      124.1290  126.7540  129.5030 H      16  MOL16       0.0276
  10043 3H94      124.5040  128.0770  128.3730 H      16  MOL16       0.0276
  10044 4H94      129.5180  128.6210  129.0310 H      16  MOL16       0.0385
  10045 5H94      128.8450  127.5110  130.1020 H      16  MOL16       0.0385
  10046 6H94      126.8460  128.4800  127.7880 H      16  MOL16       0.0284
  10047 7H94      127.5160  129.3770  129.0650 H      16  MOL16       0.0284
  10048 8H94      130.7700  118.5960  116.4630 H      16  MOL16       0.0276
  10049 9H94      131.5310  120.1200  116.5650 H      16  MOL16       0.0276
  10050 0H95      128.3560  118.3150  114.6200 H      16  MOL16       0.0240
  10051 1H95      129.9860  117.9610  114.5460 H      16  MOL16       0.0240
  10052 2H95      129.3600  119.1520  113.4840 H      16  MOL16       0.0240
  10053 3H95      125.7310  121.8830  116.5850 H      16  MOL16       0.0735
  10054 4H95      126.4320  121.3380  118.0680 H      16  MOL16       0.0735
  10055 5H95      125.7390  123.4600  118.1910 H      16  MOL16       0.0765
  10056 6H95      127.4510  124.2320  119.4000 H      16  MOL16       0.0266
  10057 7H95      128.5760  123.0470  118.9660 H      16  MOL16       0.0266
  10058 8H95      127.0690  122.4290  119.5510 H      16  MOL16       0.0266
  10059 9H95      128.9300  131.7450  120.8770 H      16  MOL16       0.0421
  10060 0H96      129.9010  129.6640  122.6750 H      16  MOL16       0.0284
  10061 1H96      129.8720  131.3750  122.6130 H      16  MOL16       0.0284
  10062 2H96      132.1550  129.3930  122.4550 H      16  MOL16       0.0385
  10063 3H96      131.5880  130.5510  123.5170 H      16  MOL16       0.0385
  10064 4H96      127.4180  130.0420  119.8850 H      16  MOL16       0.0276
  10065 5H96      127.9280  131.4830  119.2860 H      16  MOL16       0.0276
  10066 6H96      128.4170  130.5750  117.2250 H      16  MOL16       0.0266
  10067 7H96      126.8460  130.4560  117.9690 H      16  MOL16       0.0266
  10068 8H96      128.4460  128.8080  116.1780 H      16  MOL16       0.0270
  10069 9H96      126.8280  129.3690  116.1970 H      16  MOL16       0.0270
  10070 0H97      127.2530  127.1980  115.4610 H      16  MOL16       0.0377
  10071 1H97      125.9560  127.6970  116.4330 H      16  MOL16       0.0377
  10072 2H97      125.6800  128.8800  129.7540 H      16  MOL16       0.0421
  10073 3H97      138.5110  124.2860  112.2990 H      16  MOL16       0.0540
  10074 4H97      138.0080  124.4700  114.0440 H      16  MOL16       0.0540
  10075 5H97      138.1580  122.0050  111.2760 H      16  MOL16       0.0280
  10076 6H97      136.8770  123.0570  110.8730 H      16  MOL16       0.0280
  10077 7H97      136.4240  121.4580  111.4590 H      16  MOL16       0.0280
  10078 8H97      134.6860  122.2150  116.6090 H      16  MOL16       0.0735
  10079 9H97      136.0910  123.0440  117.2890 H      16  MOL16       0.0735
  10080 0H98      133.4560  124.3400  116.6780 H      16  MOL16       0.0765
  10081 1H98      133.9200  122.7200  118.3510 H      16  MOL16       0.0266
  10082 2H98      133.3790  124.1730  119.0830 H      16  MOL16       0.0266
  10083 3H98      135.0870  123.7420  119.1570 H      16  MOL16       0.0266
  10084 4H98      135.4230  131.8710  120.9370 H      16  MOL16       0.0421
  10085 5H98      137.1320  133.3780  122.5320 H      16  MOL16       0.0284
  10086 6H98      135.7410  133.7400  121.5060 H      16  MOL16       0.0284
  10087 7H98      137.4850  132.2930  119.8320 H      16  MOL16       0.0377
  10088 8H98      138.5430  133.2580  120.9180 H      16  MOL16       0.0377
  10089 9H98      138.3000  131.1270  121.0660 H      16  MOL16       0.0276
  10090 0H99      137.6560  129.8550  121.9390 H      16  MOL16       0.0276
  10091 1H99      137.2600  128.5930  120.4890 H      16  MOL16       0.0266
  10092 2H99      138.6720  129.3270  119.8840 H      16  MOL16       0.0266
  10093 3H99      137.6800  127.6120  118.9270 H      16  MOL16       0.0270
  10094 4H99      138.3020  128.7390  118.0920 H      16  MOL16       0.0270
  10095 5H99      137.4600  127.3960  116.6420 H      16  MOL16       0.0377
  10096 6H99      136.4090  128.6880  116.3800 H      16  MOL16       0.0377
  10097 7H99      138.9390  134.4040  117.4660 H      16  MOL16       0.0340
  10098 8H99      137.4270  133.9230  116.8470 H      16  MOL16       0.0340
  10099 9H99      138.2950  132.7770  117.8000 H      16  MOL16       0.0340
  10100  H10      117.1060  122.5210  122.9130 H      16  MOL16       0.0540
  10101  H10      118.8500  122.9140  122.5110 H      16  MOL16       0.0540
  10102  H10      117.6410  119.9030  125.0270 H      16  MOL16       0.0280
  10103  H10      117.8100  118.9850  123.5290 H      16  MOL16       0.0280
  10104  H10      116.5880  120.2360  123.6090 H      16  MOL16       0.0280
  10105  H10      121.0920  120.2610  121.2790 H      16  MOL16       0.0735
  10106  H10      121.8160  121.8090  121.1630 H      16  MOL16       0.0735
  10107  H10      122.4100  119.3760  122.8010 H      16  MOL16       0.0765
  10108  H10      124.6750  119.4460  121.5360 H      16  MOL16       0.0266
  10109  H10      123.9300  120.6960  120.5500 H      16  MOL16       0.0266
  10110  H10      123.1770  119.1100  120.7020 H      16  MOL16       0.0266
  10111  H10      127.7520  124.5080  126.1280 H      16  MOL16       0.0421
  10112  H10      127.0800  125.3480  124.3150 H      16  MOL16       0.0284
  10113  H10      126.7020  126.1390  125.7950 H      16  MOL16       0.0284
  10114  H10      126.6630  128.0910  125.0900 H      16  MOL16       0.0385
  10115  H10      126.0950  127.3660  123.8920 H      16  MOL16       0.0385
  10116  H10      129.2510  123.1370  125.7020 H      16  MOL16       0.0276
  10117  H10      129.7430  123.7890  124.2780 H      16  MOL16       0.0276
  10118  H10      128.2940  122.5000  123.4600 H      16  MOL16       0.0266
  10119  H10      127.0140  123.5690  123.9100 H      16  MOL16       0.0266
  10120  H10      127.2200  121.1530  125.5990 H      16  MOL16       0.0270
  10121  H10      127.1800  120.9080  123.9350 H      16  MOL16       0.0270
  10122  H10      124.8000  121.7260  125.6290 H      16  MOL16       0.0377
  10123  H10      125.1960  120.4050  124.8350 H      16  MOL16       0.0377
  10124  H10      139.4450  111.2200  105.1370 H      16  MOL16       0.0263
  10125  H10      139.2940  111.8930  103.5680 H      16  MOL16       0.0263
  10126  H10      137.6300  112.3070  105.9950 H      16  MOL16       0.0265
  10127  H10      137.1260  112.9940  104.4760 H      16  MOL16       0.0265
  10128  H10      139.0190  114.6330  104.6640 H      16  MOL16       0.0265
  10129  H10      139.4670  113.9680  106.2150 H      16  MOL16       0.0265
  10130  H10      137.5360  114.5490  107.2420 H      16  MOL16       0.0265
  10131  H10      136.5550  114.4450  105.7990 H      16  MOL16       0.0265
  10132  H10      137.5580  116.8890  105.3310 H      16  MOL16       0.0265
  10133  H10      137.8390  116.8410  107.0270 H      16  MOL16       0.0265
  10134  H10      135.1240  115.7130  106.3730 H      16  MOL16       0.0265
  10135  H10      135.3510  117.2220  105.5510 H      16  MOL16       0.0265
  10136  H10      135.1370  118.4430  107.3750 H      16  MOL16       0.0265
  10137  H10      136.3860  117.5330  108.2160 H      16  MOL16       0.0265
  10138  H10      134.7200  115.9930  109.1530 H      16  MOL16       0.0265
  10139  H10      133.4260  116.7960  108.3000 H      16  MOL16       0.0265
  10140  H10      133.7470  118.7630  109.5280 H      16  MOL16       0.0266
  10141  H10      135.4460  118.5080  109.6830 H      16  MOL16       0.0266
  10142  H10      135.2950  117.3820  111.6790 H      16  MOL16       0.0298
  10143  H10      133.5250  117.3020  111.6750 H      16  MOL16       0.0298
  10144  H10      133.5890  119.7380  111.2220 H      16  MOL16       0.0697
  10145  H10      135.2120  119.7630  111.9170 H      16  MOL16       0.0697
  10146  H10      136.7940  110.9290  103.6170 H      16  MOL16       0.0230
  10147  H10      137.2900  110.0790  105.0790 H      16  MOL16       0.0230
  10148  H10      138.0190  109.6950  103.5440 H      16  MOL16       0.0230
  10149  H10      133.9100  120.1320  115.5980 H      16  MOL16       0.0411
  10150  H10      133.9650  117.4700  116.7290 H      16  MOL16       0.0238
  10151  H10      132.5610  118.3670  117.2200 H      16  MOL16       0.0238
  10152  H10      134.0830  119.0630  117.4760 H      16  MOL16       0.0238
  10153  H10      131.8000  118.5200  114.1510 H      16  MOL16       0.0273
  10154  H10      132.0450  120.2110  114.1560 H      16  MOL16       0.0273
  10155  H10      130.5310  121.1960  114.1050 H      16  MOL16       0.0240
  10156  H10      129.4320  122.0420  115.1510 H      16  MOL16       0.0240
  10157  H10      128.8020  121.0410  113.8670 H      16  MOL16       0.0240
  10158  H10      124.5920  139.4810  144.3270 H      16  MOL16       0.2951
  10159  H10      122.8690  139.3620  143.7370 H      16  MOL16       0.0377
  10160  H10      123.2380  139.9050  142.0910 H      16  MOL16       0.0377
  10161  H10      121.4280  141.9020  143.1800 H      16  MOL16       0.0270
  10162  H10      120.8420  140.3440  143.7390 H      16  MOL16       0.0270
  10163  H10      121.2440  139.4850  141.3780 H      16  MOL16       0.0266
  10164  H10      121.6120  140.9990  140.9510 H      16  MOL16       0.0266
  10165  H10      118.8750  141.2920  141.4100 H      16  MOL16       0.0276
  10166  H10      119.1570  139.6400  141.9500 H      16  MOL16       0.0276
  10167  H10      119.3730  139.1800  137.4930 H      16  MOL16       0.0385
  10168  H10      121.0510  138.7280  137.5160 H      16  MOL16       0.0385
  10169  H10      121.2240  139.4540  139.4690 H      16  MOL16       0.0284
  10170  H10      120.3730  138.0440  140.0700 H      16  MOL16       0.0284
  10171  H10      128.9590  136.2390  131.9840 H      16  MOL16       0.0276
  10172  H10      128.6280  137.7850  131.2310 H      16  MOL16       0.0276
  10173  H10      130.8800  135.2470  131.4420 H      16  MOL16       0.0240
  10174  H10      132.0300  136.3330  130.6940 H      16  MOL16       0.0240
  10175  H10      131.3840  134.9890  129.7550 H      16  MOL16       0.0240
  10176  H10      127.5080  136.7580  127.9040 H      16  MOL16       0.0735
  10177  H10      127.0660  137.6300  129.3230 H      16  MOL16       0.0735
  10178  H10      125.3290  137.5380  127.8070 H      16  MOL16       0.0765
  10179  H10      123.5080  136.2050  127.8350 H      16  MOL16       0.0266
  10180  H10      124.1660  135.0340  128.9690 H      16  MOL16       0.0266
  10181  H10      124.6630  135.0130  127.2830 H      16  MOL16       0.0266
  10182  H10      122.5930  132.9270  132.8370 H      16  MOL16       0.0421
  10183  H10      120.7570  132.4460  130.4030 H      16  MOL16       0.0284
  10184  H10      120.9290  131.4640  132.0040 H      16  MOL16       0.0284
  10185  H10      120.6920  130.8470  129.3840 H      16  MOL16       0.0385
  10186  H10      119.9620  130.4260  130.7610 H      16  MOL16       0.0385
  10187  H10      121.7740  135.0540  131.0510 H      16  MOL16       0.0276
  10188  H10      122.8840  133.9550  130.4120 H      16  MOL16       0.0276
  10189  H10      124.6570  134.8300  132.1170 H      16  MOL16       0.0266
  10190  H10      123.4750  135.0440  133.2200 H      16  MOL16       0.0266
  10191  H10      124.9100  136.9200  132.2800 H      16  MOL16       0.0270
  10192  H10      123.4700  137.1220  133.1170 H      16  MOL16       0.0270
  10193  H10      123.2680  138.7840  131.6420 H      16  MOL16       0.0377
  10194  H10      122.2150  137.5860  130.9340 H      16  MOL16       0.0377
  10195  H10      118.9690  140.5530  139.1580 H      16  MOL16       0.0421
  10196  H10      117.8710  119.8840  127.9250 H      16  MOL16       0.0540
  10197  H10      117.6040  118.1630  128.2970 H      16  MOL16       0.0540
  10198  H10      118.4290  117.6750  131.2030 H      16  MOL16       0.0280
  10199  H10      116.7970  118.4050  131.0540 H      16  MOL16       0.0280
  10200  H11      117.9670  119.1530  132.0940 H      16  MOL16       0.0280
  10201  H11      119.0080  123.2920  128.6090 H      16  MOL16       0.0735
  10202  H11      118.6770  123.1390  130.3250 H      16  MOL16       0.0735
  10203  H11      121.2610  123.1590  128.9080 H      16  MOL16       0.0765
  10204  H11      120.4200  124.9670  128.3850 H      16  MOL16       0.0266
  10205  H11      121.2020  125.6520  129.7920 H      16  MOL16       0.0266
  10206  H11      119.5230  125.3440  129.7890 H      16  MOL16       0.0266
  10207  H11      124.5450  127.0030  131.7400 H      16  MOL16       0.0421
  10208  H11      124.2310  128.4340  134.1810 H      16  MOL16       0.0284
  10209  H11      125.2820  129.2780  133.1030 H      16  MOL16       0.0284
  10210  H11      125.9680  126.4750  133.5810 H      16  MOL16       0.0385
  10211  H11      126.2270  127.7360  134.8720 H      16  MOL16       0.0385
  10212  H11      122.0660  126.8080  132.0540 H      16  MOL16       0.0276
  10213  H11      122.3090  127.2140  133.6360 H      16  MOL16       0.0276
  10214  H11      123.9670  125.9640  134.2250 H      16  MOL16       0.0266
  10215  H11      124.5260  125.4240  132.7740 H      16  MOL16       0.0266
  10216  H11      122.3620  124.1860  134.5130 H      16  MOL16       0.0270
  10217  H11      123.9480  123.6260  134.4130 H      16  MOL16       0.0270
  10218  H11      122.3930  122.0150  133.9570 H      16  MOL16       0.0377
  10219  H11      123.6350  122.0270  132.7670 H      16  MOL16       0.0377
  10220  H11      119.1140  143.2810  139.4950 H      16  MOL16       0.0540
  10221  H11      119.7180  142.1330  138.1400 H      16  MOL16       0.0540
  10222  H11      122.2430  142.8210  141.4570 H      16  MOL16       0.0280
  10223  H11      120.5050  143.0150  141.5800 H      16  MOL16       0.0280
  10224  H11      121.4660  144.2880  140.8260 H      16  MOL16       0.0280
  10225  H11      122.7160  141.3420  135.8320 H      16  MOL16       0.0735
  10226  H11      123.6700  141.5250  137.1550 H      16  MOL16       0.0735
  10227  H11      122.3430  139.0080  136.2430 H      16  MOL16       0.0765
  10228  H11      123.6230  139.3090  134.6050 H      16  MOL16       0.0266
  10229  H11      124.7340  138.4490  135.5600 H      16  MOL16       0.0266
  10230  H11      124.8380  140.2570  135.4200 H      16  MOL16       0.0266
  10231  H11      118.4820  133.7960  139.5650 H      16  MOL16       0.0421
  10232  H11      117.6310  133.4420  137.6220 H      16  MOL16       0.0284
  10233  H11      118.0170  134.9940  136.9970 H      16  MOL16       0.0284
  10234  H11      118.4680  132.9770  135.8110 H      16  MOL16       0.0385
  10235  H11      120.0110  132.7790  136.7210 H      16  MOL16       0.0385
  10236  H11      120.9130  134.7420  138.2470 H      16  MOL16       0.0276
  10237  H11      120.9480  133.2710  139.0680 H      16  MOL16       0.0276
  10238  H11      121.5770  134.3720  141.0130 H      16  MOL16       0.0266
  10239  H11      120.4540  135.6850  140.7760 H      16  MOL16       0.0266
  10240  H11      122.9410  135.1540  139.2150 H      16  MOL16       0.0270
  10241  H11      123.2260  135.5590  140.8260 H      16  MOL16       0.0270
  10242  H11      124.3860  136.4500  139.3860 H      16  MOL16       0.0377
  10243  H11      123.7940  137.8170  140.1320 H      16  MOL16       0.0377
  10244  H11      137.1990  150.3740  135.3340 H      16  MOL16       0.0263
  10245  H11      136.8100  149.9850  133.6620 H      16  MOL16       0.0263
  10246  H11      138.1950  148.0250  135.5120 H      16  MOL16       0.0265
  10247  H11      137.6970  147.7670  133.8360 H      16  MOL16       0.0265
  10248  H11      135.5240  148.8830  135.4530 H      16  MOL16       0.0265
  10249  H11      135.9830  147.4780  136.2010 H      16  MOL16       0.0265
  10250  H11      135.9130  146.3090  133.9210 H      16  MOL16       0.0265
  10251  H11      135.4760  147.7520  133.1690 H      16  MOL16       0.0265
  10252  H11      133.1430  147.4110  133.6250 H      16  MOL16       0.0265
  10253  H11      133.3990  147.0410  135.2170 H      16  MOL16       0.0265
  10254  H11      134.5890  144.9450  134.1380 H      16  MOL16       0.0265
  10255  H11      134.0740  145.5820  132.6130 H      16  MOL16       0.0265
  10256  H11      132.9290  143.8400  134.6840 H      16  MOL16       0.0265
  10257  H11      133.2830  143.5990  133.0310 H      16  MOL16       0.0265
  10258  H11      131.1410  143.2870  132.9930 H      16  MOL16       0.0265
  10259  H11      130.7540  144.9280  133.0780 H      16  MOL16       0.0265
  10260  H11      129.6460  143.3900  134.5800 H      16  MOL16       0.0266
  10261  H11      130.7520  144.3530  135.5940 H      16  MOL16       0.0266
  10262  H11      130.6000  141.6810  135.8830 H      16  MOL16       0.0298
  10263  H11      132.0040  142.6460  136.1820 H      16  MOL16       0.0298
  10264  H11      132.5530  140.6860  135.0080 H      16  MOL16       0.0697
  10265  H11      132.9270  141.8740  133.8550 H      16  MOL16       0.0697
  10266  H11      138.7420  151.3390  133.9450 H      16  MOL16       0.0230
  10267  H11      138.8900  149.9070  132.8940 H      16  MOL16       0.0230
  10268  H11      139.6200  149.8820  134.5330 H      16  MOL16       0.0230
  10269  H11      130.7850  139.3230  130.9620 H      16  MOL16       0.0411
  10270  H11      128.5970  138.9560  132.9380 H      16  MOL16       0.0238
  10271  H11      128.5980  139.8820  131.4880 H      16  MOL16       0.0238
  10272  H11      129.1820  140.6450  132.8970 H      16  MOL16       0.0238
  10273  H11      130.1800  137.5610  133.3700 H      16  MOL16       0.0273
  10274  H11      131.4560  137.2000  132.2360 H      16  MOL16       0.0273
  10275  H11      130.5760  138.3730  129.2950 H      16  MOL16       0.0240
  10276  H11      129.1660  137.7470  128.4000 H      16  MOL16       0.0240
  10277  H11      130.7340  137.0750  128.1500 H      16  MOL16       0.0240
  10278  H11      103.6930  128.0260  149.3890 H      16  MOL16       0.2951
  10279  H11      102.7270  129.5680  148.1120 H      16  MOL16       0.0377
  10280  H11      102.7210  130.0450  149.8030 H      16  MOL16       0.0377
  10281  H11      100.3670  130.5200  149.8180 H      16  MOL16       0.0270
  10282  H11      100.0620  130.1800  148.2350 H      16  MOL16       0.0270
  10283  H11      101.3590  131.9500  147.4990 H      16  MOL16       0.0266
  10284  H11      101.2060  132.4130  149.2970 H      16  MOL16       0.0266
  10285  H11      100.2380  134.0420  148.7900 H      16  MOL16       0.0276
  10286  H11      100.0210  133.6850  147.0860 H      16  MOL16       0.0276
  10287  H11      103.4380  137.4960  146.6090 H      16  MOL16       0.0385
  10288  H11      103.6100  137.1710  148.3430 H      16  MOL16       0.0385
  10289  H11      103.5660  134.7790  147.8500 H      16  MOL16       0.0284
  10290  H11      103.1520  134.9990  146.1890 H      16  MOL16       0.0284
  10291  H11      112.1540  128.2030  138.4370 H      16  MOL16       0.0276
  10292  H11      111.0450  128.3220  137.1570 H      16  MOL16       0.0276
  10293  H11      109.8950  125.0630  138.9150 H      16  MOL16       0.0240
  10294  H11      109.4270  125.7560  137.3880 H      16  MOL16       0.0240
  10295  H11      108.5370  126.1320  138.9260 H      16  MOL16       0.0240
  10296  H11      110.0800  127.6820  142.4840 H      16  MOL16       0.0735
  10297  H11      111.3740  128.8760  142.5960 H      16  MOL16       0.0735
  10298  H11      108.7590  129.6910  141.4670 H      16  MOL16       0.0765
  10299  H11      108.8580  130.5380  144.0830 H      16  MOL16       0.0266
  10300  H12      110.1180  129.3120  144.1820 H      16  MOL16       0.0266
  10301  H12      108.4720  128.8330  143.7910 H      16  MOL16       0.0266
  10302  H12      113.6660  133.8860  143.6210 H      16  MOL16       0.0421
  10303  H12      114.9950  133.2540  146.0030 H      16  MOL16       0.0284
  10304  H12      113.5320  133.9950  146.6480 H      16  MOL16       0.0284
  10305  H12      114.6430  135.4040  144.2960 H      16  MOL16       0.0385
  10306  H12      115.8880  135.1320  145.5180 H      16  MOL16       0.0385
  10307  H12      113.9840  131.5250  145.3260 H      16  MOL16       0.0276
  10308  H12      114.7990  132.0090  143.8490 H      16  MOL16       0.0276
  10309  H12      111.8830  130.9870  144.0550 H      16  MOL16       0.0266
  10310  H12      113.2450  130.0440  143.6470 H      16  MOL16       0.0266
  10311  H12      112.5140  130.7150  141.4310 H      16  MOL16       0.0270
  10312  H12      113.6940  131.9550  141.8070 H      16  MOL16       0.0270
  10313  H12      111.4930  132.7340  140.8250 H      16  MOL16       0.0377
  10314  H12      111.8810  133.5820  142.3200 H      16  MOL16       0.0377
  10315  H12      101.8610  135.2890  148.8410 H      16  MOL16       0.0412
  10316  H12      100.4290  138.4990  148.7540 H      16  MOL16       0.0341
  10317  H12      101.9920  138.2960  147.9380 H      16  MOL16       0.0341
  10318  H12      101.6650  137.4360  149.4870 H      16  MOL16       0.0341
  10319  H12      119.2040  131.5710  140.4880 H      16  MOL16       0.0540
  10320  H12      121.0440  131.5470  140.4990 H      16  MOL16       0.0540
  10321  H12      122.0500  129.8490  138.6870 H      16  MOL16       0.0280
  10322  H12      121.8100  131.2420  137.6110 H      16  MOL16       0.0280
  10323  H12      121.1400  129.6540  137.1800 H      16  MOL16       0.0280
  10324  H12      116.7420  131.1580  136.9480 H      16  MOL16       0.0735
  10325  H12      116.2170  129.7200  137.7700 H      16  MOL16       0.0735
  10326  H12      115.1190  132.0550  137.3400 H      16  MOL16       0.0765
  10327  H12      113.0550  131.8930  138.6500 H      16  MOL16       0.0266
  10328  H12      113.8500  130.9950  139.8290 H      16  MOL16       0.0266
  10329  H12      113.5270  130.3100  138.1670 H      16  MOL16       0.0266
  10330  H12      114.2840  138.2560  144.0210 H      16  MOL16       0.0421
  10331  H12      116.0980  140.1460  144.2290 H      16  MOL16       0.0284
  10332  H12      114.7050  140.1100  143.2310 H      16  MOL16       0.0284
  10333  H12      117.4670  140.0640  142.3480 H      16  MOL16       0.0385
  10334  H12      116.3510  141.3630  142.3710 H      16  MOL16       0.0385
  10335  H12      115.6970  137.6790  141.6330 H      16  MOL16       0.0276
  10336  H12      114.4260  136.7720  142.3360 H      16  MOL16       0.0276
  10337  H12      116.6140  135.6580  143.6570 H      16  MOL16       0.0266
  10338  H12      117.1900  136.1220  142.0620 H      16  MOL16       0.0266
  10339  H12      114.5040  134.7850  142.2090 H      16  MOL16       0.0270
  10340  H12      115.9080  133.7600  142.4370 H      16  MOL16       0.0270
  10341  H12      116.7660  134.6410  140.1530 H      16  MOL16       0.0377
  10342  H12      115.3070  135.6460  140.1520 H      16  MOL16       0.0377
  10343  H12      100.1370  127.2920  146.6350 H      16  MOL16       0.0540
  10344  H12      101.8570  127.6360  147.1280 H      16  MOL16       0.0540
  10345  H12      101.0930  124.0980  145.1040 H      16  MOL16       0.0280
  10346  H12      100.6250  125.4180  144.0060 H      16  MOL16       0.0280
  10347  H12       99.7050  125.1430  145.4480 H      16  MOL16       0.0280
  10348  H12      105.2700  126.5880  145.0300 H      16  MOL16       0.0735
  10349  H12      104.5780  128.2340  144.9630 H      16  MOL16       0.0735
  10350  H12      105.5760  127.3610  147.4560 H      16  MOL16       0.0765
  10351  H12      108.0330  127.7130  147.1800 H      16  MOL16       0.0266
  10352  H12      107.9030  128.0010  145.4690 H      16  MOL16       0.0266
  10353  H12      107.5490  126.4110  146.0500 H      16  MOL16       0.0266
  10354  H12      107.5120  135.8270  145.8330 H      16  MOL16       0.0421
  10355  H12      110.1640  136.5860  146.8970 H      16  MOL16       0.0284
  10356  H12      109.4470  137.5440  145.6140 H      16  MOL16       0.0284
  10357  H12      109.2440  135.1500  144.4330 H      16  MOL16       0.0385
  10358  H12      109.8800  134.5370  145.9220 H      16  MOL16       0.0385
  10359  H12      107.8420  135.0490  148.4900 H      16  MOL16       0.0276
  10360  H12      109.2510  134.5690  147.6810 H      16  MOL16       0.0276
  10361  H12      107.5620  133.8900  145.6840 H      16  MOL16       0.0266
  10362  H12      106.4250  133.8250  147.0260 H      16  MOL16       0.0266
  10363  H12      108.4470  132.2660  147.8930 H      16  MOL16       0.0270
  10364  H12      108.6010  132.0340  146.1300 H      16  MOL16       0.0270
  10365  H12      105.8430  131.7740  147.2800 H      16  MOL16       0.0377
  10366  H12      106.9440  130.7600  148.1560 H      16  MOL16       0.0377
  10367  H12      110.0020  117.1360  127.9350 H      16  MOL16       0.0263
  10368  H12      111.2780  117.0660  129.1340 H      16  MOL16       0.0263
  10369  H12      111.1000  118.9200  126.8650 H      16  MOL16       0.0265
  10370  H12      112.7130  118.3720  127.3500 H      16  MOL16       0.0265
  10371  H12      112.3270  119.0110  129.6720 H      16  MOL16       0.0265
  10372  H12      110.6070  119.1080  129.4290 H      16  MOL16       0.0265
  10373  H12      110.6740  120.9160  128.0310 H      16  MOL16       0.0265
  10374  H12      112.4810  120.7980  127.9540 H      16  MOL16       0.0265
  10375  H12      112.6670  121.4760  130.2440 H      16  MOL16       0.0265
  10376  H12      110.9700  121.7950  130.3330 H      16  MOL16       0.0265
  10377  H12      111.1130  123.4410  128.4360 H      16  MOL16       0.0265
  10378  H12      112.6040  122.7730  127.9090 H      16  MOL16       0.0265
  10379  H12      112.3080  125.0610  129.2110 H      16  MOL16       0.0265
  10380  H12      113.7960  124.2120  128.9080 H      16  MOL16       0.0265
  10381  H12      112.9850  123.1990  131.4830 H      16  MOL16       0.0265
  10382  H12      112.5260  124.8810  131.4390 H      16  MOL16       0.0265
  10383  H12      114.8830  125.2570  130.4540 H      16  MOL16       0.0266
  10384  H12      115.1150  123.8630  131.6280 H      16  MOL16       0.0266
  10385  H12      113.5420  125.3300  132.9810 H      16  MOL16       0.0298
  10386  H12      114.1120  126.6930  131.9920 H      16  MOL16       0.0298
  10387  H12      115.8650  126.8330  133.4150 H      16  MOL16       0.0697
  10388  H12      116.2750  125.1100  133.4160 H      16  MOL16       0.0697
  10389  H12      110.9000  115.4420  126.7220 H      16  MOL16       0.0230
  10390  H12      111.0050  115.0580  128.4040 H      16  MOL16       0.0230
  10391  H12      112.4890  115.4620  127.5030 H      16  MOL16       0.0230
  10392  H12      113.8200  125.2750  137.2270 H      16  MOL16       0.0411
  10393  H12      112.0770  123.8150  136.1630 H      16  MOL16       0.0238
  10394  H12      113.6990  123.5910  135.6180 H      16  MOL16       0.0238
  10395  H12      112.7060  124.4170  134.5790 H      16  MOL16       0.0238
  10396  H12      111.3800  126.6820  135.9940 H      16  MOL16       0.0273
  10397  H12      112.8110  127.6590  136.3460 H      16  MOL16       0.0273
  10398  H12      110.0210  129.1930  138.9490 H      16  MOL16       0.0240
  10399  H12      108.5800  128.2490  139.3360 H      16  MOL16       0.0240
  10400  H13      109.1070  128.3890  137.6330 H      16  MOL16       0.0240
  10401  O65       88.9610  126.6180  150.4570 O.2    17  MOL17      -0.2510
  10402  O65       90.2850  127.6460  151.8480 O.3    17  MOL17      -0.4806
  10403  C65       89.6870  126.5080  151.4090 C.2    17  MOL17       0.3047
  10404  C65       90.1330  125.3410  152.4030 C.3    17  MOL17       0.0448
  10405  C65       90.4760  123.7830  152.3020 C.3    17  MOL17      -0.0430
  10406  C65       91.7130  122.8940  152.9210 C.3    17  MOL17      -0.0515
  10407  C65       91.8040  121.3710  152.2880 C.3    17  MOL17      -0.0403
  10408  S65       96.7640  121.1590  149.9320 S.3    17  MOL17      -0.0928
  10409  C65       95.3820  119.9750  150.8880 C.3    17  MOL17       0.0050
  10410  C66       94.2150  119.9610  152.0690 C.3    17  MOL17      -0.0305
  10411  C66       99.1990  133.6510  154.8100 C.2    17  MOL17       0.3129
  10412  C66      100.7070  134.1780  154.9540 C.3    17  MOL17       0.0622
  10413  C66      101.7540  133.9790  153.8440 C.3    17  MOL17      -0.0370
  10414  C66      100.7680  135.6780  155.0090 C.3    17  MOL17      -0.0497
  10415  O66       98.4200  133.9280  153.9420 O.2    17  MOL17      -0.2502
  10416  O66       98.8990  132.8040  155.8620 O.3    17  MOL17      -0.4605
  10417  C66       97.6560  132.0700  156.2190 C.3    17  MOL17       0.1290
  10418  C66       97.6450  130.5740  156.6880 C.3    17  MOL17       0.1341
  10419  C66       97.8300  129.8110  155.4370 C.3    17  MOL17      -0.0244
  10420  C67       99.3370  122.6500  158.1230 C.3    17  MOL17       0.0162
  10421  C67       99.8860  121.8530  156.8020 C.3    17  MOL17      -0.0305
  10422  C67      101.0970  121.3880  155.8390 C.3    17  MOL17       0.0050
  10423  S67      102.7120  120.5540  156.3320 S.3    17  MOL17      -0.0928
  10424  C67       99.2300  123.8380  159.3220 C.3    17  MOL17      -0.0403
  10425  C67       99.3790  125.2130  160.1980 C.3    17  MOL17      -0.0515
  10426  C67       99.4410  126.8270  160.3390 C.3    17  MOL17      -0.0429
  10427  C67       98.8830  128.2570  159.8390 C.3    17  MOL17       0.0450
  10428  C67       97.9090  129.1460  158.9240 C.2    17  MOL17       0.3074
  10429  O67       98.3150  129.6870  157.7290 O.3    17  MOL17      -0.4582
  10430  O68       96.8440  129.4040  159.3780 O.2    17  MOL17      -0.2508
  10431  C68       92.7370  120.0140  151.7070 C.3    17  MOL17       0.0162
  10432  C68      107.6000  131.9620  154.6980 C.2    17  MOL17       0.3344
  10433  C68      108.9500  132.0780  155.4090 C.2    17  MOL17       0.0264
  10434  C68      109.7510  131.0240  155.6220 C.2    17  MOL17      -0.0890
  10435  C68      109.4770  133.3560  156.0070 C.3    17  MOL17      -0.0335
  10436  O68      106.9530  132.9610  154.5120 O.2    17  MOL17      -0.2453
  10437  O68      107.1330  130.7370  154.2920 O.3    17  MOL17      -0.4577
  10438  C68      105.8660  130.0450  153.9130 C.3    17  MOL17       0.1293
  10439  C68      105.0000  128.9100  154.6580 C.3    17  MOL17       0.1341
  10440  C69      104.1240  128.5170  153.4320 C.3    17  MOL17      -0.0244
  10441  C69      105.5380  120.1690  155.3720 C.3    17  MOL17       0.0162
  10442  C69      106.1220  118.9720  156.1190 C.3    17  MOL17      -0.0313
  10443  C69      107.4710  119.4400  156.6020 C.3    17  MOL17      -0.0056
  10444  S69      107.7390  119.3330  158.3550 S.3    17  MOL17      -0.1641
  10445  C69      106.6840  121.1060  154.5770 C.3    17  MOL17      -0.0403
  10446  C69      107.2630  122.6970  154.6740 C.3    17  MOL17      -0.0515
  10447  C69      107.5340  124.2950  155.1830 C.3    17  MOL17      -0.0429
  10448  C69      107.3820  125.8010  156.0000 C.3    17  MOL17       0.0450
  10449  C69      106.3300  127.0040  156.6040 C.2    17  MOL17       0.3074
  10450  O70      105.5210  127.9740  155.8320 O.3    17  MOL17      -0.4582
  10451  O70      106.2380  127.1400  157.7770 O.2    17  MOL17      -0.2508
  10452  C70      109.1240  120.5050  158.6470 C.3    17  MOL17      -0.0181
  10453  S70      103.8320  119.8280  154.7140 S.3    17  MOL17      -0.0897
  10454  C70       88.8280  130.3790  153.8630 C.2    17  MOL17       0.3344
  10455  C70       87.5990  130.3960  154.6340 C.2    17  MOL17       0.0264
  10456  C70       87.6150  129.8650  155.8720 C.2    17  MOL17      -0.0890
  10457  C70       86.4350  131.1010  154.0360 C.3    17  MOL17      -0.0335
  10458  O70       88.9100  130.7540  152.7160 O.2    17  MOL17      -0.2453
  10459  O70       89.9480  129.9720  154.4880 O.3    17  MOL17      -0.4577
  10460  C71       91.0530  130.8450  154.4580 C.3    17  MOL17       0.1293
  10461  C71       91.8200  130.8570  153.1840 C.3    17  MOL17       0.1341
  10462  C71       93.0580  131.7270  153.3520 C.3    17  MOL17      -0.0244
  10463  S71       97.1610  123.2100  150.2930 S.3    17  MOL17      -0.0897
  10464  C71       96.1850  124.2270  151.6360 C.3    17  MOL17       0.0162
  10465  C71       95.6090  123.9880  153.1420 C.3    17  MOL17      -0.0305
  10466  C71       95.7610  123.3870  154.6440 C.3    17  MOL17       0.0050
  10467  S71       96.5620  122.8000  156.2150 S.3    17  MOL17      -0.0928
  10468  C71       96.6120  125.6220  151.1960 C.3    17  MOL17      -0.0403
  10469  C71       95.7560  126.8520  151.5610 C.3    17  MOL17      -0.0515
  10470  C72       94.6790  127.7200  150.8500 C.3    17  MOL17      -0.0429
  10471  C72       93.2490  128.1060  151.3310 C.3    17  MOL17       0.0450
  10472  C72       92.9310  128.7450  152.6710 C.2    17  MOL17       0.3074
  10473  O72       91.9640  129.6490  152.4240 O.3    17  MOL17      -0.4582
  10474  O72       93.4560  128.5790  153.7220 O.2    17  MOL17      -0.2508
  10475  S72       97.5360  122.1900  157.8440 S.3    17  MOL17      -0.0897
  10476  C72      112.5780  145.6760  153.6010 C.3    17  MOL17      -0.0559
  10477  C72      111.8080  144.5060  154.1600 C.3    17  MOL17      -0.0533
  10478  C72      112.3530  143.1040  154.4510 C.3    17  MOL17      -0.0531
  10479  C72      111.1310  142.3020  154.9170 C.3    17  MOL17      -0.0531
  10480  C73      111.0870  141.1580  155.9310 C.3    17  MOL17      -0.0531
  10481  C73      109.6770  141.1150  156.5850 C.3    17  MOL17      -0.0531
  10482  C73      108.9890  139.7830  156.3320 C.3    17  MOL17      -0.0531
  10483  C73      107.5910  139.7070  155.7240 C.3    17  MOL17      -0.0530
  10484  C73      107.3150  138.2160  155.6430 C.3    17  MOL17      -0.0500
  10485  C73      106.5880  137.4670  154.5590 C.3    17  MOL17      -0.0185
  10486  C73      106.4060  136.0770  155.0600 C.3    17  MOL17       0.0925
  10487  C73      111.6190  146.8770  153.5480 C.3    17  MOL17      -0.0653
  10488  C73      104.2030  134.1260  152.9820 C.3    17  MOL17       0.0537
  10489  C73      105.4490  134.9320  153.2250 C.2    17  MOL17       0.3099
  10490  O74      105.2840  135.4860  154.4400 O.3    17  MOL17      -0.4644
  10491  O74      106.4820  135.0750  152.6180 O.2    17  MOL17      -0.2505
  10492  C74      103.6050  133.8200  151.5960 C.3    17  MOL17      -0.0523
  10493  C74      103.1540  134.5720  154.0520 C.3    17  MOL17      -0.0394
  10494  C74      101.2590  133.7490  156.2730 C.3    17  MOL17      -0.0497
  10495  O74       87.0510  101.0030  152.1810 O.2    17  MOL17      -0.2510
  10496  O74       87.0600  101.7320  150.0430 O.3    17  MOL17      -0.4806
  10497  C74       86.6310  101.7290  151.3340 C.2    17  MOL17       0.3047
  10498  C74       85.6520  102.8620  151.5250 C.3    17  MOL17       0.0448
  10499  C74       84.4860  102.7090  152.5250 C.3    17  MOL17      -0.0430
  10500  C75       84.5560  103.8970  153.4560 C.3    17  MOL17      -0.0515
  10501  C75       83.3650  104.4330  154.2320 C.3    17  MOL17      -0.0403
  10502  S75       84.8100  109.2760  154.1780 S.3    17  MOL17      -0.0928
  10503  C75       85.0680  107.7470  155.0360 C.3    17  MOL17       0.0050
  10504  C75       84.6660  106.5590  154.2330 C.3    17  MOL17      -0.0305
  10505  C75       96.0610  113.6620  155.1720 C.2    17  MOL17       0.3129
  10506  C75       96.9190  112.3840  155.2170 C.3    17  MOL17       0.0622
  10507  C75       96.0130  111.2290  154.8490 C.3    17  MOL17      -0.0370
  10508  C75       97.7890  112.5070  153.9680 C.3    17  MOL17      -0.0497
  10509  O75       96.3750  114.5380  154.4170 O.2    17  MOL17      -0.2502
  10510  O76       94.8740  113.6780  155.9110 O.3    17  MOL17      -0.4605
  10511  C76       94.8300  113.5380  157.3430 C.3    17  MOL17       0.1290
  10512  C76       93.6010  113.9400  158.1680 C.3    17  MOL17       0.1341
  10513  C76       92.7500  115.2020  158.2060 C.3    17  MOL17      -0.0244
  10514  C76       88.4770  115.0630  155.0260 C.3    17  MOL17       0.0162
  10515  C76       88.2460  116.7340  155.0970 C.3    17  MOL17      -0.0305
  10516  C76       88.0820  118.3710  154.8810 C.3    17  MOL17       0.0050
  10517  S76       88.3620  119.7390  153.6670 S.3    17  MOL17      -0.0928
  10518  C76       89.5550  114.5500  155.9730 C.3    17  MOL17      -0.0403
  10519  C76       90.2870  113.2270  155.5100 C.3    17  MOL17      -0.0515
  10520  C77       90.6600  111.9990  156.4050 C.3    17  MOL17      -0.0429
  10521  C77       90.6790  111.9050  157.9450 C.3    17  MOL17       0.0450
  10522  C77       91.7430  112.5280  158.7040 C.2    17  MOL17       0.3074
  10523  O77       92.5920  113.0080  157.7900 O.3    17  MOL17      -0.4582
  10524  O77       91.8540  112.6260  159.9050 O.2    17  MOL17      -0.2508
  10525  S77       82.0090  106.7800  154.8080 S.3    17  MOL17      -0.0897
  10526  C77       83.5490  105.7950  154.9000 C.3    17  MOL17       0.0162
  10527  C77       84.6940  126.4540  149.8480 C.2    17  MOL17       0.3344
  10528  C77       84.2650  127.7610  149.4360 C.2    17  MOL17       0.0264
  10529  C77       84.5790  128.8270  150.1870 C.2    17  MOL17      -0.0890
  10530  C78       83.4510  127.7560  148.2070 C.3    17  MOL17      -0.0335
  10531  O78       84.1380  125.4420  149.4790 O.2    17  MOL17      -0.2453
  10532  O78       85.7730  126.4160  150.6500 O.3    17  MOL17      -0.4577
  10533  C78       86.0060  125.2030  151.3080 C.3    17  MOL17       0.1293
  10534  C78       87.1770  124.3970  150.9350 C.3    17  MOL17       0.1341
  10535  C78       87.3020  123.4190  152.1930 C.3    17  MOL17      -0.0244
  10536  C78       89.6050  118.9610  150.6890 C.3    17  MOL17       0.0162
  10537  C78       90.0610  117.6750  149.9500 C.3    17  MOL17      -0.0305
  10538  C78       90.8240  117.7750  148.6640 C.3    17  MOL17       0.0050
  10539  S78       92.5490  117.6390  149.0140 S.3    17  MOL17      -0.0928
  10540  C79       88.2960  119.4940  150.1740 C.3    17  MOL17      -0.0403
  10541  C79       88.5680  120.0570  148.7120 C.3    17  MOL17      -0.0515
  10542  C79       87.7920  121.0470  147.6620 C.3    17  MOL17      -0.0429
  10543  C79       87.5300  122.6700  147.4240 C.3    17  MOL17       0.0450
  10544  C79       86.8730  123.8480  148.3150 C.2    17  MOL17       0.3074
  10545  O79       87.5250  124.0790  149.5070 O.3    17  MOL17      -0.4582
  10546  O79       85.8620  124.3770  147.9520 O.2    17  MOL17      -0.2508
  10547  S79       92.5510  119.4630  149.9340 S.3    17  MOL17      -0.0897
  10548  S79       89.9660  119.2810  152.4990 S.3    17  MOL17      -0.0897
  10549  C79       86.7780  104.4780  155.6870 C.2    17  MOL17       0.3344
  10550  C80       85.7850  103.4650  156.0720 C.2    17  MOL17       0.0264
  10551  C80       84.9740  103.9090  157.0070 C.2    17  MOL17      -0.0890
  10552  C80       85.5460  102.1180  155.4390 C.3    17  MOL17      -0.0335
  10553  O80       87.4660  104.3260  154.7130 O.2    17  MOL17      -0.2453
  10554  O80       86.9700  105.6310  156.4240 O.3    17  MOL17      -0.4577
  10555  C80       88.2930  106.1190  156.2400 C.3    17  MOL17       0.1293
  10556  C80       88.4810  107.2270  155.3030 C.3    17  MOL17       0.1341
  10557  C80       89.8660  107.8490  155.5810 C.3    17  MOL17      -0.0244
  10558  S80       82.9290  109.1700  153.3690 S.3    17  MOL17      -0.0897
  10559  C80       83.2580  110.5970  152.3040 C.3    17  MOL17       0.0162
  10560  C81       83.3020  111.7890  153.3020 C.3    17  MOL17      -0.0305
  10561  C81       84.4200  112.8140  153.3660 C.3    17  MOL17       0.0050
  10562  S81       85.6850  112.3530  154.6330 S.3    17  MOL17      -0.0928
  10563  C81       84.4850  110.2710  151.4490 C.3    17  MOL17      -0.0403
  10564  C81       84.7110  108.8270  150.9240 C.3    17  MOL17      -0.0515
  10565  C81       86.1580  108.2020  151.0270 C.3    17  MOL17      -0.0429
  10566  C81       87.2980  107.4390  151.7770 C.3    17  MOL17       0.0450
  10567  C81       88.0020  107.7850  153.0640 C.2    17  MOL17       0.3074
  10568  O81       87.9350  106.8350  154.0160 O.3    17  MOL17      -0.4582
  10569  O81       88.7420  108.7130  153.1810 O.2    17  MOL17      -0.2508
  10570  S82       87.3790  113.4520  155.1990 S.3    17  MOL17      -0.0897
  10571  C82      103.5660   98.0960  157.4290 C.3    17  MOL17      -0.0559
  10572  C82      103.2120   99.0680  156.3370 C.3    17  MOL17      -0.0533
  10573  C82      101.7090   99.3070  156.3840 C.3    17  MOL17      -0.0531
  10574  C82      101.4440  100.6970  156.9600 C.3    17  MOL17      -0.0531
  10575  C82       99.9940  101.1740  157.2380 C.3    17  MOL17      -0.0531
  10576  C82      100.0210  102.6030  156.7890 C.3    17  MOL17      -0.0531
  10577  C82       98.9790  103.6320  156.4250 C.3    17  MOL17      -0.0531
  10578  C82       97.6800  104.0840  157.0170 C.3    17  MOL17      -0.0530
  10579  C82       96.5260  103.8700  156.0760 C.3    17  MOL17      -0.0500
  10580  C83       96.7330  104.4140  154.6600 C.3    17  MOL17      -0.0185
  10581  C83       97.7150  105.5630  154.4710 C.3    17  MOL17       0.0925
  10582  C83      105.0160   97.8230  157.5700 C.3    17  MOL17      -0.0653
  10583  C83       97.0650  109.0270  155.2790 C.3    17  MOL17       0.0537
  10584  C83       97.8870  107.9050  154.7430 C.2    17  MOL17       0.3099
  10585  O83       97.2410  106.7640  155.0580 O.3    17  MOL17      -0.4644
  10586  O83       98.9340  107.9680  154.1360 O.2    17  MOL17      -0.2505
  10587  C83       95.7310  108.6490  155.9270 C.3    17  MOL17      -0.0523
  10588  C83       96.6840  110.0130  154.2010 C.3    17  MOL17      -0.0394
  10589  C83       97.7160  112.3030  156.5170 C.3    17  MOL17      -0.0497
  10590  O84       61.4740  112.6480  148.3690 O.2    17  MOL17      -0.2510
  10591  O84       63.3960  112.3320  147.2480 O.3    17  MOL17      -0.4806
  10592  C84       62.5320  112.1130  148.2850 C.2    17  MOL17       0.3047
  10593  C84       63.1550  111.1470  149.2910 C.3    17  MOL17       0.0448
  10594  C84       62.2180  110.7330  150.4860 C.3    17  MOL17      -0.0430
  10595  C84       62.5410  109.8260  151.7950 C.3    17  MOL17      -0.0516
  10596  C84       62.9030  108.9000  153.0850 C.3    17  MOL17      -0.0411
  10597  S84       67.7660  106.7040  153.2520 S.3    17  MOL17      -0.0928
  10598  C84       66.2010  106.3650  154.1370 C.3    17  MOL17       0.0049
  10599  C84       65.4190  107.6330  153.7140 C.3    17  MOL17      -0.0313
  10600  C85       74.1450  116.9790  150.1940 C.2    17  MOL17       0.3129
  10601  C85       74.5760  117.8670  151.3340 C.3    17  MOL17       0.0622
  10602  C85       76.0650  117.8880  151.7820 C.3    17  MOL17      -0.0370
  10603  C85       73.7990  119.1190  151.1610 C.3    17  MOL17      -0.0497
  10604  O85       73.5210  117.3150  149.2170 O.2    17  MOL17      -0.2502
  10605  O85       74.4330  115.6900  150.5320 O.3    17  MOL17      -0.4605
  10606  C85       73.5340  114.7460  149.9800 C.3    17  MOL17       0.1290
  10607  C85       72.7810  113.9160  150.9400 C.3    17  MOL17       0.1341
  10608  C85       71.8200  113.1760  150.0370 C.3    17  MOL17      -0.0244
  10609  C85       75.6740  108.9640  150.0700 C.3    17  MOL17       0.0162
  10610  C86       75.9130  107.6630  149.3080 C.3    17  MOL17      -0.0305
  10611  C86       76.8180  106.7670  150.1270 C.3    17  MOL17       0.0050
  10612  S86       76.2580  105.1920  150.7300 S.3    17  MOL17      -0.0928
  10613  C86       75.9500  110.1210  149.1710 C.3    17  MOL17      -0.0403
  10614  C86       75.3040  111.4490  149.5290 C.3    17  MOL17      -0.0515
  10615  C86       75.8490  111.9710  150.8600 C.3    17  MOL17      -0.0429
  10616  C86       75.0920  111.4720  152.0920 C.3    17  MOL17       0.0450
  10617  C86       73.6630  111.8100  151.8830 C.2    17  MOL17       0.3074
  10618  O86       73.7750  113.0970  151.5270 O.3    17  MOL17      -0.4582
  10619  O86       72.6550  111.1590  151.9930 O.2    17  MOL17      -0.2508
  10620  S87       63.0530  106.9540  155.0810 S.3    17  MOL17      -0.1607
  10621  C87       63.8620  107.7430  153.6660 C.3    17  MOL17       0.0058
  10622  C87       63.5800  105.2630  154.9720 C.3    17  MOL17      -0.0178
  10623  C87       82.8570  114.1000  150.5230 C.2    17  MOL17       0.3344
  10624  C87       83.7870  113.3320  149.6900 C.2    17  MOL17       0.0264
  10625  C87       83.3700  112.1550  149.2070 C.2    17  MOL17      -0.0890
  10626  C87       85.1700  113.8730  149.4480 C.3    17  MOL17      -0.0335
  10627  O87       83.2380  115.1280  151.0370 O.2    17  MOL17      -0.2453
  10628  O87       81.5770  113.6490  150.7690 O.3    17  MOL17      -0.4577
  10629  C87       80.8550  114.4420  151.7240 C.3    17  MOL17       0.1293
  10630  C88       79.7560  113.7060  152.4660 C.3    17  MOL17       0.1341
  10631  C88       78.2430  114.1000  152.4400 C.3    17  MOL17      -0.0244
  10632  C88       78.3340  105.4180  152.8460 C.3    17  MOL17       0.0162
  10633  C88       78.9630  104.4230  153.8640 C.3    17  MOL17      -0.0305
  10634  C88       80.2080  104.4950  154.7250 C.3    17  MOL17       0.0050
  10635  S88       80.5970  105.8290  155.8850 S.3    17  MOL17      -0.0928
  10636  C88       78.7790  106.8900  152.9590 C.3    17  MOL17      -0.0403
  10637  C88       79.3750  107.6460  151.7780 C.3    17  MOL17      -0.0515
  10638  C88       78.8500  109.0740  151.7500 C.3    17  MOL17      -0.0429
  10639  C88       79.6260  109.9570  152.6920 C.3    17  MOL17       0.0450
  10640  C89       79.0210  111.3300  152.6670 C.2    17  MOL17       0.3074
  10641  O89       79.9790  112.2650  152.3830 O.3    17  MOL17      -0.4582
  10642  O89       77.8580  111.5260  152.8930 O.2    17  MOL17      -0.2508
  10643  S89       78.1700  104.7090  151.1790 S.3    17  MOL17      -0.0897
  10644  C89       64.9080  115.7980  148.7150 C.2    17  MOL17       0.3344
  10645  C89       63.6190  115.9800  149.3690 C.2    17  MOL17       0.0264
  10646  C89       63.0320  114.8290  149.6700 C.2    17  MOL17      -0.0890
  10647  C89       63.0270  117.3090  149.6910 C.3    17  MOL17      -0.0335
  10648  O89       65.5160  116.7180  148.2130 O.2    17  MOL17      -0.2453
  10649  O89       65.4420  114.5230  148.7170 O.3    17  MOL17      -0.4577
  10650  C90       66.8260  114.4310  149.0590 C.3    17  MOL17       0.1293
  10651  C90       67.4300  113.3240  148.2720 C.3    17  MOL17       0.1341
  10652  C90       68.8280  113.5400  147.6310 C.3    17  MOL17      -0.0244
  10653  S90       69.1570  105.1970  153.0140 S.3    17  MOL17      -0.0897
  10654  C90       70.3270  106.4700  152.4550 C.3    17  MOL17       0.0162
  10655  C90       71.8310  106.2480  152.5820 C.3    17  MOL17      -0.0305
  10656  C90       72.4660  107.5810  152.2520 C.3    17  MOL17       0.0050
  10657  S90       74.2440  107.5540  152.0590 S.3    17  MOL17      -0.0928
  10658  C90       69.9440  106.9580  151.0660 C.3    17  MOL17      -0.0403
  10659  C90       69.4410  108.4060  151.1610 C.3    17  MOL17      -0.0515
  10660  C91       69.5790  109.3320  149.9650 C.3    17  MOL17      -0.0429
  10661  C91       68.3490  110.1710  149.6250 C.3    17  MOL17       0.0450
  10662  C91       68.3380  111.6760  149.6190 C.2    17  MOL17       0.3074
  10663  O91       67.3030  112.0060  148.8150 O.3    17  MOL17      -0.4582
  10664  O91       69.0350  112.4990  150.1420 O.2    17  MOL17      -0.2508
  10665  S91       74.0220  109.0190  150.6860 S.3    17  MOL17      -0.0897
  10666  C91       78.4890  131.9900  152.0600 C.3    17  MOL17      -0.0559
  10667  C91       79.3490  131.0910  152.9230 C.3    17  MOL17      -0.0533
  10668  C91       78.8180  129.6840  152.6320 C.3    17  MOL17      -0.0531
  10669  C91       79.1830  128.7820  153.7470 C.3    17  MOL17      -0.0531
  10670  C92       79.0560  127.3010  153.5990 C.3    17  MOL17      -0.0531
  10671  C92       79.7710  126.7540  154.8350 C.3    17  MOL17      -0.0531
  10672  C92       80.3670  125.3560  154.7820 C.3    17  MOL17      -0.0531
  10673  C92       80.0070  124.3920  153.6470 C.3    17  MOL17      -0.0530
  10674  C92       81.1430  123.5090  153.2200 C.3    17  MOL17      -0.0500
  10675  C92       80.6950  122.0850  153.1430 C.3    17  MOL17      -0.0185
  10676  C92       81.2370  121.1740  152.0760 C.3    17  MOL17       0.0925
  10677  C92       78.8210  133.2780  151.3570 C.3    17  MOL17      -0.0653
  10678  C92       78.0430  119.9510  150.8550 C.3    17  MOL17       0.0537
  10679  C92       79.4740  119.6790  151.1780 C.2    17  MOL17       0.3099
  10680  O93       80.0490  120.8690  151.3650 O.3    17  MOL17      -0.4644
  10681  O93       80.0120  118.6070  151.2380 O.2    17  MOL17      -0.2505
  10682  C93       77.8230  121.4780  150.6900 C.3    17  MOL17      -0.0523
  10683  C93       77.1070  119.0560  151.7990 C.3    17  MOL17      -0.0394
  10684  C93       73.9440  117.1510  152.5030 C.3    17  MOL17      -0.0497
  10685 5H93       90.7310  127.4940  152.6810 H      17  MOL17       0.2951
  10686 6H93       89.2540  125.3980  153.0290 H      17  MOL17       0.0377
  10687 7H93       90.8990  125.8920  152.9010 H      17  MOL17       0.0377
  10688 8H93       90.3520  123.5260  151.2760 H      17  MOL17       0.0270
  10689 9H93       89.6410  123.2670  152.8040 H      17  MOL17       0.0270
  10690 0H94       91.2880  122.6590  153.9160 H      17  MOL17       0.0266
  10691 1H94       92.6310  123.3540  153.2600 H      17  MOL17       0.0266
  10692 2H94       90.8080  121.3210  151.8650 H      17  MOL17       0.0276
  10693 3H94       91.7810  120.9130  153.2990 H      17  MOL17       0.0276
  10694 4H94       96.0820  119.2060  151.1890 H      17  MOL17       0.0385
  10695 5H94       94.8920  119.5360  150.0460 H      17  MOL17       0.0385
  10696 6H94       94.1820  120.5400  153.0080 H      17  MOL17       0.0284
  10697 7H94       94.3590  118.9530  152.4330 H      17  MOL17       0.0284
  10698 8H94      101.2500  134.3760  152.9750 H      17  MOL17       0.0276
  10699 9H94      102.0780  132.9970  153.5460 H      17  MOL17       0.0276
  10700 0H95       99.8160  136.1370  155.0110 H      17  MOL17       0.0240
  10701 1H95      101.2700  136.1690  154.1900 H      17  MOL17       0.0240
  10702 2H95      101.2980  136.0000  155.8960 H      17  MOL17       0.0240
  10703 3H95       97.0680  132.6440  156.9400 H      17  MOL17       0.0735
  10704 4H95       97.0100  132.0440  155.3210 H      17  MOL17       0.0735
  10705 5H95       96.5950  130.4460  156.8290 H      17  MOL17       0.0765
  10706 6H95       97.7230  128.8120  155.8060 H      17  MOL17       0.0266
  10707 7H95       98.7720  129.7950  154.9160 H      17  MOL17       0.0266
  10708 8H95       97.0950  130.1860  154.7390 H      17  MOL17       0.0266
  10709 9H95       99.3550  121.8290  158.8700 H      17  MOL17       0.0421
  10710 0H96       99.2190  122.1810  155.9780 H      17  MOL17       0.0284
  10711 1H96       99.4280  120.8970  157.0910 H      17  MOL17       0.0284
  10712 2H96      101.3050  122.1260  155.0580 H      17  MOL17       0.0385
  10713 3H96      100.4930  120.6850  155.2850 H      17  MOL17       0.0385
  10714 4H96       98.2010  124.0180  159.0890 H      17  MOL17       0.0276
  10715 5H96       99.0880  123.1730  160.1830 H      17  MOL17       0.0276
  10716 6H96      100.2810  125.0400  160.8180 H      17  MOL17       0.0266
  10717 7H96       98.5410  124.9600  160.8690 H      17  MOL17       0.0266
  10718 8H96      100.5290  127.0400  160.4210 H      17  MOL17       0.0270
  10719 9H96       99.1340  126.8790  161.4010 H      17  MOL17       0.0270
  10720 0H97       99.5600  128.9350  160.3840 H      17  MOL17       0.0377
  10721 1H97       98.0460  128.1870  160.5540 H      17  MOL17       0.0377
  10722 2H97       92.3580  119.2450  152.3940 H      17  MOL17       0.0421
  10723 3H97      110.6560  131.1170  156.2220 H      17  MOL17       0.0540
  10724 4H97      109.4940  130.0060  155.3580 H      17  MOL17       0.0540
  10725 5H97      110.4870  133.5690  155.6420 H      17  MOL17       0.0280
  10726 6H97      109.6330  133.2240  157.0780 H      17  MOL17       0.0280
  10727 7H97      108.7840  134.1890  155.8720 H      17  MOL17       0.0280
  10728 8H97      105.1540  130.7880  153.5540 H      17  MOL17       0.0735
  10729 9H97      106.2350  129.4840  153.0470 H      17  MOL17       0.0735
  10730 0H98      104.2790  129.3160  155.3140 H      17  MOL17       0.0765
  10731 1H98      103.7970  129.4760  152.9950 H      17  MOL17       0.0266
  10732 2H98      103.1810  128.0010  153.6160 H      17  MOL17       0.0266
  10733 3H98      104.6340  127.9890  152.6170 H      17  MOL17       0.0266
  10734 4H98      105.1850  120.5460  156.3140 H      17  MOL17       0.0421
  10735 5H98      106.2380  118.1090  155.4870 H      17  MOL17       0.0284
  10736 6H98      105.4620  118.6950  156.9600 H      17  MOL17       0.0284
  10737 7H98      107.5550  120.5240  156.5000 H      17  MOL17       0.0377
  10738 8H98      108.1700  118.9310  155.9410 H      17  MOL17       0.0377
  10739 9H98      107.6280  120.5360  154.6180 H      17  MOL17       0.0276
  10740 0H99      106.5270  121.1070  153.4970 H      17  MOL17       0.0276
  10741 1H99      106.6240  123.0360  153.8540 H      17  MOL17       0.0266
  10742 2H99      108.2380  122.5830  154.1530 H      17  MOL17       0.0266
  10743 3H99      107.5370  124.6680  154.1340 H      17  MOL17       0.0270
  10744 4H99      108.5850  124.1900  155.1480 H      17  MOL17       0.0270
  10745 5H99      108.2700  126.2600  155.6320 H      17  MOL17       0.0377
  10746 6H99      107.5930  125.6020  157.0290 H      17  MOL17       0.0377
  10747 7H99      110.1140  120.0630  158.8260 H      17  MOL17       0.0340
  10748 8H99      108.9540  121.0790  159.5500 H      17  MOL17       0.0340
  10749 9H99      109.1950  121.2370  157.8500 H      17  MOL17       0.0340
  10750  H10       86.7340  129.8390  156.5030 H      17  MOL17       0.0540
  10751  H10       88.5190  129.4700  156.3220 H      17  MOL17       0.0540
  10752  H10       86.0090  130.4940  153.2380 H      17  MOL17       0.0280
  10753  H10       86.6760  132.0840  153.6150 H      17  MOL17       0.0280
  10754  H10       85.6970  131.2810  154.8230 H      17  MOL17       0.0280
  10755  H10       90.7280  131.8780  154.6150 H      17  MOL17       0.0735
  10756  H10       91.6180  130.6190  155.3630 H      17  MOL17       0.0735
  10757  H10       91.1670  131.4080  152.5120 H      17  MOL17       0.0765
  10758  H10       93.7440  131.7200  152.5060 H      17  MOL17       0.0266
  10759  H10       93.6400  131.4800  154.2440 H      17  MOL17       0.0266
  10760  H10       92.7050  132.7500  153.4600 H      17  MOL17       0.0266
  10761  H10       95.2070  124.4670  151.3090 H      17  MOL17       0.0421
  10762  H10       95.4650  125.0340  153.3230 H      17  MOL17       0.0284
  10763  H10       94.6020  123.5900  152.9630 H      17  MOL17       0.0284
  10764  H10       95.1010  122.5100  154.6640 H      17  MOL17       0.0385
  10765  H10       95.0030  123.8990  155.2520 H      17  MOL17       0.0385
  10766  H10       96.5660  125.5230  150.1480 H      17  MOL17       0.0276
  10767  H10       97.6850  125.7940  151.3190 H      17  MOL17       0.0276
  10768  H10       96.5670  127.5460  151.6520 H      17  MOL17       0.0266
  10769  H10       95.3570  126.6700  152.5210 H      17  MOL17       0.0266
  10770  H10       94.5390  127.4830  149.8000 H      17  MOL17       0.0270
  10771  H10       95.1710  128.6890  150.7900 H      17  MOL17       0.0270
  10772  H10       92.4190  127.4500  151.1020 H      17  MOL17       0.0377
  10773  H10       92.9470  128.8840  150.6620 H      17  MOL17       0.0377
  10774  H10      112.8980  145.4260  152.5980 H      17  MOL17       0.0263
  10775  H10      113.5030  145.8810  154.1360 H      17  MOL17       0.0263
  10776  H10      111.0390  144.3840  153.4160 H      17  MOL17       0.0265
  10777  H10      111.3070  144.8610  155.0690 H      17  MOL17       0.0265
  10778  H10      113.1320  143.1410  155.2020 H      17  MOL17       0.0265
  10779  H10      112.8030  142.6380  153.5630 H      17  MOL17       0.0265
  10780  H10      110.7060  141.9060  153.9990 H      17  MOL17       0.0265
  10781  H10      110.4160  143.0340  155.3020 H      17  MOL17       0.0265
  10782  H10      111.8140  141.2460  156.7310 H      17  MOL17       0.0265
  10783  H10      111.3500  140.2050  155.4430 H      17  MOL17       0.0265
  10784  H10      109.0430  141.9560  156.2710 H      17  MOL17       0.0265
  10785  H10      109.7770  141.2450  157.6710 H      17  MOL17       0.0265
  10786  H10      108.9690  139.2300  157.2790 H      17  MOL17       0.0265
  10787  H10      109.6290  139.2050  155.6480 H      17  MOL17       0.0265
  10788  H10      107.5490  140.1260  154.7270 H      17  MOL17       0.0265
  10789  H10      106.8400  140.2490  156.3170 H      17  MOL17       0.0265
  10790  H10      106.8560  137.9230  156.5770 H      17  MOL17       0.0266
  10791  H10      108.2870  137.7260  155.6360 H      17  MOL17       0.0266
  10792  H10      107.1770  137.4160  153.6500 H      17  MOL17       0.0298
  10793  H10      105.5770  137.7940  154.3090 H      17  MOL17       0.0298
  10794  H10      106.1220  136.1680  156.0990 H      17  MOL17       0.0697
  10795  H10      107.2940  135.4400  154.9960 H      17  MOL17       0.0697
  10796  H10      111.1160  147.0420  154.5040 H      17  MOL17       0.0230
  10797  H10      110.8440  146.7270  152.7920 H      17  MOL17       0.0230
  10798  H10      112.0960  147.8260  153.3000 H      17  MOL17       0.0230
  10799  H10      104.6250  133.1530  153.2570 H      17  MOL17       0.0411
  10800  H10      103.8740  134.5230  150.8220 H      17  MOL17       0.0238
  10801  H10      102.5150  133.7770  151.6060 H      17  MOL17       0.0238
  10802  H10      103.8630  132.8140  151.2560 H      17  MOL17       0.0238
  10803  H10      103.1360  135.6540  154.0800 H      17  MOL17       0.0273
  10804  H10      103.5610  134.2960  155.0250 H      17  MOL17       0.0273
  10805  H10      102.3420  133.8310  156.2750 H      17  MOL17       0.0240
  10806  H10      101.0180  132.7350  156.5310 H      17  MOL17       0.0240
  10807  H10      100.8670  134.4010  157.0300 H      17  MOL17       0.0240
  10808  H10       86.5670  102.3850  149.5430 H      17  MOL17       0.2951
  10809  H10       85.2500  103.1390  150.5560 H      17  MOL17       0.0377
  10810  H10       86.3390  103.6500  151.8580 H      17  MOL17       0.0377
  10811  H10       84.4990  101.7620  153.0810 H      17  MOL17       0.0270
  10812  H10       83.5460  102.7350  151.9720 H      17  MOL17       0.0270
  10813  H10       84.7930  104.7620  152.8760 H      17  MOL17       0.0266
  10814  H10       85.4890  103.7810  153.9550 H      17  MOL17       0.0266
  10815  H10       82.8700  103.7590  154.9190 H      17  MOL17       0.0276
  10816  H10       82.6950  104.6630  153.4190 H      17  MOL17       0.0276
  10817  H10       84.7010  107.6830  156.0600 H      17  MOL17       0.0385
  10818  H10       86.1450  107.7230  155.0940 H      17  MOL17       0.0385
  10819  H10       85.5720  105.9460  154.1550 H      17  MOL17       0.0284
  10820  H10       84.3810  106.8260  153.2150 H      17  MOL17       0.0284
  10821  H10       95.2740  111.6070  154.1340 H      17  MOL17       0.0276
  10822  H10       95.4820  110.9230  155.7330 H      17  MOL17       0.0276
  10823  H10       97.1080  112.3650  153.1190 H      17  MOL17       0.0240
  10824  H10       98.5900  111.7730  153.8380 H      17  MOL17       0.0240
  10825  H10       98.2360  113.4990  153.8980 H      17  MOL17       0.0240
  10826  H10       95.7430  113.9340  157.7930 H      17  MOL17       0.0735
  10827  H10       94.8580  112.4760  157.5500 H      17  MOL17       0.0735
  10828  H10       93.9190  113.7730  159.2110 H      17  MOL17       0.0765
  10829  H10       92.1060  115.1120  159.0950 H      17  MOL17       0.0266
  10830  H10       92.0790  115.2170  157.3400 H      17  MOL17       0.0266
  10831  H10       93.2300  116.1670  158.2680 H      17  MOL17       0.0266
  10832  H10       88.7840  114.7840  154.0490 H      17  MOL17       0.0421
  10833  H10       88.0940  116.9580  156.1290 H      17  MOL17       0.0284
  10834  H10       87.4570  116.7180  154.3700 H      17  MOL17       0.0284
  10835  H10       88.2670  118.8270  155.8540 H      17  MOL17       0.0385
  10836  H10       86.9810  118.4470  154.9540 H      17  MOL17       0.0385
  10837  H10       89.0560  114.3620  156.9000 H      17  MOL17       0.0276
  10838  H10       90.1890  115.4060  156.2070 H      17  MOL17       0.0276
  10839  H10       91.1760  113.3800  154.8890 H      17  MOL17       0.0266
  10840  H10       89.6760  112.7550  154.7490 H      17  MOL17       0.0266
  10841  H10       91.5910  111.6160  155.9730 H      17  MOL17       0.0270
  10842  H10       89.9690  111.2060  156.1070 H      17  MOL17       0.0270
  10843  H10       90.6090  110.8470  158.2140 H      17  MOL17       0.0377
  10844  H10       89.8120  112.3920  158.3710 H      17  MOL17       0.0377
  10845  H10       83.8080  105.6810  155.9460 H      17  MOL17       0.0421
  10846  H10       84.9980  128.7120  151.1760 H      17  MOL17       0.0540
  10847  H10       84.3910  129.8680  149.9650 H      17  MOL17       0.0540
  10848  H10       83.8560  128.3390  147.3690 H      17  MOL17       0.0280
  10849  H10       82.5390  128.1520  148.5730 H      17  MOL17       0.0280
  10850  H11       83.2470  126.7340  147.8670 H      17  MOL17       0.0280
  10851  H11       86.1520  125.4530  152.3700 H      17  MOL17       0.0735
  10852  H11       85.1160  124.5900  151.2480 H      17  MOL17       0.0735
  10853  H11       88.0370  124.9770  151.1870 H      17  MOL17       0.0765
  10854  H11       87.7210  124.0400  152.9950 H      17  MOL17       0.0266
  10855  H11       87.9180  122.5180  152.1570 H      17  MOL17       0.0266
  10856  H11       86.3710  123.0550  152.6380 H      17  MOL17       0.0266
  10857  H11       90.2740  119.6990  150.3420 H      17  MOL17       0.0421
  10858  H11       89.1440  117.1650  149.7030 H      17  MOL17       0.0284
  10859  H11       90.6450  116.9770  150.5350 H      17  MOL17       0.0284
  10860  H11       90.7180  118.7400  148.2020 H      17  MOL17       0.0385
  10861  H11       90.5640  116.9340  148.0060 H      17  MOL17       0.0385
  10862  H11       87.8890  120.0980  150.9980 H      17  MOL17       0.0276
  10863  H11       87.4940  118.7810  150.0840 H      17  MOL17       0.0276
  10864  H11       88.5850  119.1000  148.2490 H      17  MOL17       0.0266
  10865  H11       89.6310  120.2990  148.6720 H      17  MOL17       0.0266
  10866  H11       86.8040  120.5880  147.5940 H      17  MOL17       0.0270
  10867  H11       88.2030  120.8030  146.6810 H      17  MOL17       0.0270
  10868  H11       86.7980  122.6040  146.6130 H      17  MOL17       0.0377
  10869  H11       88.4160  123.0960  146.9280 H      17  MOL17       0.0377
  10870  H11       84.1320  103.3350  157.3500 H      17  MOL17       0.0540
  10871  H11       85.1020  104.9400  157.3130 H      17  MOL17       0.0540
  10872  H11       86.0680  101.9500  154.4890 H      17  MOL17       0.0280
  10873  H11       84.4760  102.0310  155.2210 H      17  MOL17       0.0280
  10874  H11       85.8120  101.3310  156.1350 H      17  MOL17       0.0280
  10875  H11       88.6700  106.4220  157.1870 H      17  MOL17       0.0735
  10876  H11       88.9950  105.3090  156.0250 H      17  MOL17       0.0735
  10877  H11       87.8760  108.0490  155.6130 H      17  MOL17       0.0765
  10878  H11       89.7510  108.5820  156.3950 H      17  MOL17       0.0266
  10879  H11       90.2450  108.4730  154.7730 H      17  MOL17       0.0266
  10880  H11       90.6190  107.1380  155.9460 H      17  MOL17       0.0266
  10881  H11       82.3710  110.7600  151.6800 H      17  MOL17       0.0421
  10882  H11       82.3780  112.3630  153.1140 H      17  MOL17       0.0284
  10883  H11       83.1770  111.4690  154.3440 H      17  MOL17       0.0284
  10884  H11       83.8330  113.6730  153.7160 H      17  MOL17       0.0385
  10885  H11       84.8150  113.0020  152.3630 H      17  MOL17       0.0385
  10886  H11       85.2270  110.3950  152.1870 H      17  MOL17       0.0276
  10887  H11       84.7340  111.0320  150.7060 H      17  MOL17       0.0276
  10888  H11       84.6190  108.8880  149.8230 H      17  MOL17       0.0266
  10889  H11       83.8690  108.2130  151.2450 H      17  MOL17       0.0266
  10890  H11       86.6960  109.1310  150.9780 H      17  MOL17       0.0270
  10891  H11       86.3270  107.7900  150.0260 H      17  MOL17       0.0270
  10892  H11       88.0830  107.7660  151.0870 H      17  MOL17       0.0377
  10893  H11       87.4050  106.3590  151.6660 H      17  MOL17       0.0377
  10894  H11      103.0130   97.1580  157.3340 H      17  MOL17       0.0263
  10895  H11      103.3170   98.5410  158.3780 H      17  MOL17       0.0263
  10896  H11      103.5470   98.6960  155.3610 H      17  MOL17       0.0265
  10897  H11      103.7700   99.9990  156.5320 H      17  MOL17       0.0265
  10898  H11      101.2740   98.5380  156.9990 H      17  MOL17       0.0265
  10899  H11      101.2010   99.0930  155.4400 H      17  MOL17       0.0265
  10900  H11      101.9520  101.3940  156.2850 H      17  MOL17       0.0265
  10901  H11      102.0500  100.8080  157.8610 H      17  MOL17       0.0265
  10902  H11       99.7180  101.2090  158.2740 H      17  MOL17       0.0265
  10903  H11       99.2360  100.4850  156.8670 H      17  MOL17       0.0265
  10904  H11      100.5020  102.5550  155.8220 H      17  MOL17       0.0265
  10905  H11      100.7570  103.0760  157.4530 H      17  MOL17       0.0265
  10906  H11       98.6440  103.3740  155.4310 H      17  MOL17       0.0265
  10907  H11       99.6270  104.5000  156.2580 H      17  MOL17       0.0265
  10908  H11       97.6770  105.1440  156.9470 H      17  MOL17       0.0265
  10909  H11       97.4940  103.8880  158.0590 H      17  MOL17       0.0265
  10910  H11       95.6800  104.3670  156.5340 H      17  MOL17       0.0266
  10911  H11       96.3670  102.8100  156.0030 H      17  MOL17       0.0266
  10912  H11       95.7820  104.7340  154.2140 H      17  MOL17       0.0298
  10913  H11       97.0380  103.5560  154.0490 H      17  MOL17       0.0298
  10914  H11       97.7840  105.6900  153.4090 H      17  MOL17       0.0697
  10915  H11       98.7490  105.4010  154.7750 H      17  MOL17       0.0697
  10916  H11      105.1020   96.9780  158.2540 H      17  MOL17       0.0230
  10917  H11      105.5000   98.6990  158.0190 H      17  MOL17       0.0230
  10918  H11      105.4670   97.5960  156.6030 H      17  MOL17       0.0230
  10919  H11       97.7230  109.5120  156.0060 H      17  MOL17       0.0411
  10920  H11       94.8820  108.9860  155.3160 H      17  MOL17       0.0238
  10921  H11       95.6040  109.1470  156.8700 H      17  MOL17       0.0238
  10922  H11       95.6320  107.5970  156.1570 H      17  MOL17       0.0238
  10923  H11       95.9540  109.5260  153.5280 H      17  MOL17       0.0273
  10924  H11       97.5320  110.2670  153.5610 H      17  MOL17       0.0273
  10925  H11       98.1170  111.2960  156.6280 H      17  MOL17       0.0240
  10926  H11       97.1470  112.5730  157.4080 H      17  MOL17       0.0240
  10927  H11       98.5810  112.9680  156.5350 H      17  MOL17       0.0240
  10928  H11       64.2420  111.8970  147.3720 H      17  MOL17       0.2951
  10929  H11       64.0970  111.6460  149.5760 H      17  MOL17       0.0377
  10930  H11       63.4420  110.2510  148.7310 H      17  MOL17       0.0377
  10931  H11       61.3760  110.2910  149.9550 H      17  MOL17       0.0270
  10932  H11       61.7230  111.5680  150.9360 H      17  MOL17       0.0270
  10933  H11       63.4160  110.4120  152.0120 H      17  MOL17       0.0266
  10934  H11       62.5810  108.9900  151.1440 H      17  MOL17       0.0266
  10935  H11       62.1230  108.2050  152.8830 H      17  MOL17       0.0276
  10936  H11       62.5970  109.5530  153.9000 H      17  MOL17       0.0276
  10937  H11       66.3390  106.2830  155.2190 H      17  MOL17       0.0385
  10938  H11       65.7270  105.4530  153.7760 H      17  MOL17       0.0385
  10939  H11       65.6000  107.6150  152.6460 H      17  MOL17       0.0284
  10940  H11       65.9510  108.5240  154.0700 H      17  MOL17       0.0284
  10941  H11       76.4680  116.9010  151.5060 H      17  MOL17       0.0276
  10942  H11       76.0210  117.7800  152.8880 H      17  MOL17       0.0276
  10943  H11       73.8500  119.4450  150.1400 H      17  MOL17       0.0240
  10944  H11       74.1540  119.9170  151.7890 H      17  MOL17       0.0240
  10945  H11       72.7550  118.8500  151.3370 H      17  MOL17       0.0240
  10946  H11       72.8410  115.2180  149.2760 H      17  MOL17       0.0735
  10947  H11       74.1040  113.9960  149.4230 H      17  MOL17       0.0735
  10948  H11       72.3250  114.5100  151.7350 H      17  MOL17       0.0765
  10949  H11       71.4210  112.2510  150.4520 H      17  MOL17       0.0266
  10950  H12       72.3630  112.9190  149.1230 H      17  MOL17       0.0266
  10951  H12       70.9880  113.8180  149.7470 H      17  MOL17       0.0266
  10952  H12       76.3500  109.0840  150.9180 H      17  MOL17       0.0421
  10953  H12       76.4700  107.8950  148.3860 H      17  MOL17       0.0284
  10954  H12       74.9740  107.1890  148.9920 H      17  MOL17       0.0284
  10955  H12       77.1320  107.3250  151.0120 H      17  MOL17       0.0385
  10956  H12       77.7060  106.5750  149.5200 H      17  MOL17       0.0385
  10957  H12       75.6320  109.8260  148.1760 H      17  MOL17       0.0276
  10958  H12       77.0430  110.2010  149.1490 H      17  MOL17       0.0276
  10959  H12       74.2090  111.3840  149.5410 H      17  MOL17       0.0266
  10960  H12       75.4900  112.1220  148.6890 H      17  MOL17       0.0266
  10961  H12       75.8440  113.0740  150.8940 H      17  MOL17       0.0270
  10962  H12       76.8990  111.6760  150.9370 H      17  MOL17       0.0270
  10963  H12       75.4260  112.0560  152.9630 H      17  MOL17       0.0377
  10964  H12       75.2520  110.4240  152.3220 H      17  MOL17       0.0377
  10965  H12       63.7140  106.9200  152.9720 H      17  MOL17       0.0412
  10966  H12       62.8560  104.7370  155.5910 H      17  MOL17       0.0341
  10967  H12       64.5790  105.1120  155.3930 H      17  MOL17       0.0341
  10968  H12       63.5300  104.8990  153.9440 H      17  MOL17       0.0341
  10969  H12       82.3620  111.7980  149.3900 H      17  MOL17       0.0540
  10970  H12       84.0100  111.4850  148.6330 H      17  MOL17       0.0540
  10971  H12       85.4670  113.7220  148.4050 H      17  MOL17       0.0280
  10972  H12       85.8720  113.3370  150.0910 H      17  MOL17       0.0280
  10973  H12       85.2550  114.9470  149.6660 H      17  MOL17       0.0280
  10974  H12       81.5810  114.7000  152.5100 H      17  MOL17       0.0735
  10975  H12       80.5880  115.4100  151.2740 H      17  MOL17       0.0735
  10976  H12       80.0660  114.0530  153.4490 H      17  MOL17       0.0765
  10977  H12       77.6400  113.7500  153.2880 H      17  MOL17       0.0266
  10978  H12       77.7510  113.5910  151.6170 H      17  MOL17       0.0266
  10979  H12       78.0740  115.1870  152.4450 H      17  MOL17       0.0266
  10980  H12       77.2740  105.3430  153.1070 H      17  MOL17       0.0421
  10981  H12       79.0500  103.4300  153.4130 H      17  MOL17       0.0284
  10982  H12       78.2110  104.3100  154.6210 H      17  MOL17       0.0284
  10983  H12       81.0590  104.3920  154.0870 H      17  MOL17       0.0385
  10984  H12       80.2050  103.5680  155.3210 H      17  MOL17       0.0385
  10985  H12       79.4750  106.9890  153.8000 H      17  MOL17       0.0276
  10986  H12       77.9260  107.4910  153.2700 H      17  MOL17       0.0276
  10987  H12       79.2030  107.1660  150.8130 H      17  MOL17       0.0266
  10988  H12       80.4470  107.6720  151.9490 H      17  MOL17       0.0266
  10989  H12       77.8060  109.0940  152.0950 H      17  MOL17       0.0270
  10990  H12       78.8480  109.5030  150.7440 H      17  MOL17       0.0270
  10991  H12       80.6850  110.0520  152.4920 H      17  MOL17       0.0377
  10992  H12       79.4960  109.5320  153.6980 H      17  MOL17       0.0377
  10993  H12       62.1090  114.7640  150.2000 H      17  MOL17       0.0540
  10994  H12       63.4910  113.8940  149.3920 H      17  MOL17       0.0540
  10995  H12       63.2190  117.9990  148.8740 H      17  MOL17       0.0280
  10996  H12       63.4200  117.7240  150.6210 H      17  MOL17       0.0280
  10997  H12       61.9540  117.2260  149.8430 H      17  MOL17       0.0280
  10998  H12       67.3130  115.3750  148.7980 H      17  MOL17       0.0735
  10999  H12       66.9190  114.2610  150.1390 H      17  MOL17       0.0735
  11000  H12       66.6650  113.2500  147.5150 H      17  MOL17       0.0765
  11001  H12       69.0350  112.7100  146.9390 H      17  MOL17       0.0266
  11002  H12       69.6710  113.5470  148.3250 H      17  MOL17       0.0266
  11003  H12       68.9140  114.4900  147.0890 H      17  MOL17       0.0266
  11004  H12       70.1240  107.3260  153.0820 H      17  MOL17       0.0421
  11005  H12       72.1570  105.6240  151.7740 H      17  MOL17       0.0284
  11006  H12       72.1670  105.7860  153.5210 H      17  MOL17       0.0284
  11007  H12       72.1860  108.3940  152.9180 H      17  MOL17       0.0385
  11008  H12       72.0590  107.8550  151.2780 H      17  MOL17       0.0385
  11009  H12       69.2120  106.2610  150.6730 H      17  MOL17       0.0276
  11010  H12       70.7600  106.8750  150.3600 H      17  MOL17       0.0276
  11011  H12       69.9950  108.9100  151.9630 H      17  MOL17       0.0266
  11012  H12       68.4010  108.3480  151.4700 H      17  MOL17       0.0266
  11013  H12       69.6660  108.6740  149.1110 H      17  MOL17       0.0270
  11014  H12       70.5150  109.8950  150.0970 H      17  MOL17       0.0270
  11015  H12       67.5200  109.8880  150.2610 H      17  MOL17       0.0377
  11016  H12       68.0190  109.9480  148.6010 H      17  MOL17       0.0377
  11017  H12       77.5790  132.2280  152.6100 H      17  MOL17       0.0263
  11018  H12       78.2160  131.3310  151.2460 H      17  MOL17       0.0263
  11019  H12       79.2340  131.2990  154.0000 H      17  MOL17       0.0265
  11020  H12       80.4140  131.1450  152.6880 H      17  MOL17       0.0265
  11021  H12       79.1710  129.3110  151.6690 H      17  MOL17       0.0265
  11022  H12       77.7380  129.6860  152.5800 H      17  MOL17       0.0265
  11023  H12       78.6060  129.1200  154.6170 H      17  MOL17       0.0265
  11024  H12       80.2500  128.9390  153.8750 H      17  MOL17       0.0265
  11025  H12       79.5390  126.9920  152.6720 H      17  MOL17       0.0265
  11026  H12       78.0150  126.9910  153.4880 H      17  MOL17       0.0265
  11027  H12       79.1400  126.8390  155.7320 H      17  MOL17       0.0265
  11028  H12       80.6200  127.4120  155.0790 H      17  MOL17       0.0265
  11029  H12       80.0890  124.9020  155.7350 H      17  MOL17       0.0265
  11030  H12       81.4510  125.4800  154.8190 H      17  MOL17       0.0265
  11031  H12       79.5170  124.8480  152.7750 H      17  MOL17       0.0265
  11032  H12       79.3290  123.6520  154.0300 H      17  MOL17       0.0265
  11033  H12       81.9080  123.5410  153.9870 H      17  MOL17       0.0266
  11034  H12       81.4540  123.8690  152.2380 H      17  MOL17       0.0266
  11035  H12       79.6510  122.1890  152.8600 H      17  MOL17       0.0298
  11036  H12       80.7450  121.6310  154.1460 H      17  MOL17       0.0298
  11037  H12       81.7430  120.3500  152.5700 H      17  MOL17       0.0697
  11038  H12       81.9010  121.6130  151.3390 H      17  MOL17       0.0697
  11039  H12       78.6880  134.1180  152.0210 H      17  MOL17       0.0230
  11040  H12       78.0300  133.3780  150.6050 H      17  MOL17       0.0230
  11041  H12       79.7920  133.3480  150.8710 H      17  MOL17       0.0230
  11042  H12       78.1140  119.6100  149.8450 H      17  MOL17       0.0411
  11043  H12       76.8140  121.6950  150.3560 H      17  MOL17       0.0238
  11044  H12       78.4740  121.9120  149.9370 H      17  MOL17       0.0238
  11045  H12       78.1170  122.0770  151.5490 H      17  MOL17       0.0238
  11046  H12       76.6090  119.6980  152.5240 H      17  MOL17       0.0273
  11047  H12       77.8680  118.4740  152.3200 H      17  MOL17       0.0273
  11048  H12       74.4550  116.1990  152.6250 H      17  MOL17       0.0240
  11049  H12       72.8810  116.9520  152.3540 H      17  MOL17       0.0240
  11050  H13       74.0860  117.7820  153.3820 H      17  MOL17       0.0240
  11051  O65      105.8530  135.2760  137.0600 O.2    18  MOL18      -0.2510
  11052  O65      103.8820  135.9900  137.6510 O.3    18  MOL18      -0.4806
  11053  C65      104.6750  135.2600  136.8230 C.2    18  MOL18       0.3047
  11054  C65      103.7210  134.6340  135.7060 C.3    18  MOL18       0.0448
  11055  C65      103.6310  133.2740  134.8710 C.3    18  MOL18      -0.0430
  11056  C65      102.3660  132.2790  134.5350 C.3    18  MOL18      -0.0515
  11057  C65      102.8280  130.8300  133.8900 C.3    18  MOL18      -0.0403
  11058  S65      100.9810  127.0860  137.4630 S.3    18  MOL18      -0.0928
  11059  C65      101.3510  127.3560  135.4590 C.3    18  MOL18       0.0050
  11060  C66      101.3470  128.4760  134.2330 C.3    18  MOL18      -0.0305
  11061  C66       95.1640  137.2110  144.4910 C.2    18  MOL18       0.3129
  11062  C66       93.9650  136.8970  145.5100 C.3    18  MOL18       0.0622
  11063  C66       94.0150  135.7140  146.4940 C.3    18  MOL18      -0.0370
  11064  C66       93.8050  137.9880  146.5310 C.3    18  MOL18      -0.0497
  11065  O66       96.3110  137.4130  144.7700 O.2    18  MOL18      -0.2502
  11066  O66       94.6800  137.2230  143.1950 O.3    18  MOL18      -0.4605
  11067  C66       95.3490  137.4790  141.8920 C.3    18  MOL18       0.1290
  11068  C66       95.1060  136.6040  140.6130 C.3    18  MOL18       0.1341
  11069  C66       95.8950  135.3830  140.8670 C.3    18  MOL18      -0.0244
  11070  C67       93.3160  130.6050  135.2740 C.3    18  MOL18       0.0162
  11071  C67       93.8990  129.1410  135.7220 C.3    18  MOL18      -0.0305
  11072  C67       93.7430  127.7480  136.5250 C.3    18  MOL18       0.0050
  11073  S67       92.2950  126.5440  136.4810 S.3    18  MOL18      -0.0928
  11074  C67       92.4850  132.0740  135.3750 C.3    18  MOL18      -0.0403
  11075  C67       91.6910  133.4040  135.9060 C.3    18  MOL18      -0.0515
  11076  C67       91.4620  134.6180  136.9570 C.3    18  MOL18      -0.0429
  11077  C67       92.1340  135.7180  137.9280 C.3    18  MOL18       0.0450
  11078  C67       93.4200  136.4450  138.5530 C.2    18  MOL18       0.3074
  11079  O67       93.9460  136.0910  139.7720 O.3    18  MOL18      -0.4582
  11080  O68       93.8430  137.3810  137.9580 O.2    18  MOL18      -0.2508
  11081  C68      102.6470  129.0990  133.7420 C.3    18  MOL18       0.0162
  11082  C68       89.3790  131.6640  147.5240 C.2    18  MOL18       0.3344
  11083  C68       87.9150  131.3880  147.8790 C.2    18  MOL18       0.0264
  11084  C68       87.2530  130.3080  147.4390 C.2    18  MOL18      -0.0890
  11085  C68       87.0530  132.3280  148.6800 C.3    18  MOL18      -0.0335
  11086  O68       89.9150  132.6370  147.9880 O.2    18  MOL18      -0.2453
  11087  O68       90.0600  130.8190  146.6840 O.3    18  MOL18      -0.4577
  11088  C68       91.2610  130.7840  145.7990 C.3    18  MOL18       0.1293
  11089  C68       91.4100  130.7320  144.1970 C.3    18  MOL18       0.1341
  11090  C69       92.9140  130.3300  144.1680 C.3    18  MOL18      -0.0244
  11091  C69       90.9890  124.3910  138.1280 C.3    18  MOL18       0.0162
  11092  C69       90.1130  123.5600  137.1940 C.3    18  MOL18      -0.0313
  11093  C69       88.7930  123.4380  137.9110 C.3    18  MOL18      -0.0056
  11094  S69       87.3740  124.0230  137.0140 S.3    18  MOL18      -0.1641
  11095  C69       90.6870  124.1330  139.7610 C.3    18  MOL18      -0.0403
  11096  C69       90.1240  125.0470  141.0740 C.3    18  MOL18      -0.0515
  11097  C69       89.4890  126.3100  142.0160 C.3    18  MOL18      -0.0429
  11098  C69       88.9430  127.8620  142.5200 C.3    18  MOL18       0.0450
  11099  C69       89.1990  129.5500  142.4930 C.2    18  MOL18       0.3074
  11100  O70       90.2650  130.3190  143.1750 O.3    18  MOL18      -0.4582
  11101  O70       88.4320  130.2310  141.9000 O.2    18  MOL18      -0.2508
  11102  C70       86.1260  124.3110  138.3310 C.3    18  MOL18      -0.0181
  11103  S70       92.6790  124.7070  137.4180 S.3    18  MOL18      -0.0897
  11104  C70      103.3510  139.6460  137.6950 C.2    18  MOL18       0.3344
  11105  C70      103.6790  140.6330  136.6840 C.2    18  MOL18       0.0264
  11106  C70      102.8250  140.8010  135.6550 C.2    18  MOL18      -0.0890
  11107  C70      104.8880  141.4660  136.9180 C.3    18  MOL18      -0.0335
  11108  O70      104.0810  139.3560  138.6160 O.2    18  MOL18      -0.2453
  11109  O70      102.1400  139.0650  137.6270 O.3    18  MOL18      -0.4577
  11110  C71      101.3320  139.1290  138.7790 C.3    18  MOL18       0.1293
  11111  C71      101.6840  138.1690  139.8580 C.3    18  MOL18       0.1341
  11112  C71      100.6430  138.2530  140.9660 C.3    18  MOL18      -0.0244
  11113  S71      100.3380  128.5490  138.8550 S.3    18  MOL18      -0.0897
  11114  C71      100.0310  130.4000  138.3360 C.3    18  MOL18       0.0162
  11115  C71       99.3920  131.2040  137.0700 C.3    18  MOL18      -0.0305
  11116  C71       98.2600  131.3720  135.9170 C.3    18  MOL18       0.0050
  11117  S71       96.6170  131.2520  135.0540 S.3    18  MOL18      -0.0928
  11118  C71       99.9650  131.0030  139.7330 C.3    18  MOL18      -0.0403
  11119  C71      100.2490  132.5030  139.9510 C.3    18  MOL18      -0.0515
  11120  C72      101.4660  133.3600  140.4000 C.3    18  MOL18      -0.0429
  11121  C72      102.1200  134.5870  139.6990 C.3    18  MOL18       0.0450
  11122  C72      101.3700  135.8260  139.2470 C.2    18  MOL18       0.3074
  11123  O72      102.1800  136.8660  139.5220 O.3    18  MOL18      -0.4582
  11124  O72      100.2670  135.9180  138.8190 O.2    18  MOL18      -0.2508
  11125  S72       94.8130  131.0540  134.2290 S.3    18  MOL18      -0.0897
  11126  C72       85.8980  138.6700  159.8890 C.3    18  MOL18      -0.0559
  11127  C72       86.1120  138.4600  158.4100 C.3    18  MOL18      -0.0533
  11128  C72       85.5950  137.2910  157.5660 C.3    18  MOL18      -0.0531
  11129  C72       86.1760  137.5360  156.1680 C.3    18  MOL18      -0.0531
  11130  C73       85.5540  137.1830  154.8160 C.3    18  MOL18      -0.0531
  11131  C73       86.0950  138.1650  153.7380 C.3    18  MOL18      -0.0531
  11132  C73       86.8310  137.4250  152.6330 C.3    18  MOL18      -0.0531
  11133  C73       88.2540  137.8010  152.2270 C.3    18  MOL18      -0.0530
  11134  C73       88.5850  136.8130  151.1220 C.3    18  MOL18      -0.0500
  11135  C73       89.9030  136.1400  150.8470 C.3    18  MOL18      -0.0185
  11136  C73       89.7520  135.4440  149.5390 C.3    18  MOL18       0.0925
  11137  C73       86.5510  140.0100  160.2640 C.3    18  MOL18      -0.0653
  11138  C73       92.8790  134.1880  148.2650 C.3    18  MOL18       0.0537
  11139  C73       91.7820  134.2560  149.2930 C.2    18  MOL18       0.3099
  11140  O74       91.0140  135.2990  148.9260 O.3    18  MOL18      -0.4644
  11141  O74       91.4700  133.5590  150.2270 O.2    18  MOL18      -0.2505
  11142  C74       94.2940  133.6360  148.5190 C.3    18  MOL18      -0.0523
  11143  C74       92.8450  135.5330  147.4710 C.3    18  MOL18      -0.0394
  11144  C74       92.6690  136.9040  144.7710 C.3    18  MOL18      -0.0497
  11145  O74      107.3480  118.2940  117.7690 O.2    18  MOL18      -0.2510
  11146  O74      108.8070  117.8480  119.4340 O.3    18  MOL18      -0.4806
  11147  C74      108.2030  118.6530  118.5180 C.2    18  MOL18       0.3047
  11148  C74      108.7020  120.0640  118.7040 C.3    18  MOL18       0.0448
  11149  C74      108.8330  121.0000  117.4830 C.3    18  MOL18      -0.0430
  11150  C75      108.0650  122.2570  117.8180 C.3    18  MOL18      -0.0515
  11151  C75      108.3350  123.6070  117.1750 C.3    18  MOL18      -0.0403
  11152  S75      107.0930  126.3920  121.2060 S.3    18  MOL18      -0.0928
  11153  C75      106.3870  125.5340  119.8250 C.3    18  MOL18       0.0050
  11154  C75      107.3000  124.5030  119.2570 C.3    18  MOL18      -0.0305
  11155  C75       98.1890  124.3470  129.1650 C.2    18  MOL18       0.3129
  11156  C75       97.6170  122.9980  128.6920 C.3    18  MOL18       0.0622
  11157  C75       98.5790  122.4440  127.6630 C.3    18  MOL18      -0.0370
  11158  C75       97.8730  122.0770  129.8840 C.3    18  MOL18      -0.0497
  11159  O75       98.4510  124.4840  130.3260 O.2    18  MOL18      -0.2502
  11160  O76       98.5100  125.2970  128.1900 O.3    18  MOL18      -0.4605
  11161  C76       97.5410  125.8710  127.2930 C.3    18  MOL18       0.1290
  11162  C76       97.8100  127.1640  126.5140 C.3    18  MOL18       0.1341
  11163  C76       98.3190  128.5360  126.9340 C.3    18  MOL18      -0.0244
  11164  C76      103.5920  129.1520  126.4760 C.3    18  MOL18       0.0162
  11165  C76      103.6170  130.5230  127.4600 C.3    18  MOL18      -0.0305
  11166  C76      103.7990  131.7060  128.6110 C.3    18  MOL18       0.0050
  11167  S76      104.3820  132.0110  130.3400 S.3    18  MOL18      -0.0928
  11168  C76      102.1890  128.6620  126.1400 C.3    18  MOL18      -0.0403
  11169  C76      102.0650  127.1110  125.8520 C.3    18  MOL18      -0.0515
  11170  C77      101.2360  126.4320  124.7130 C.3    18  MOL18      -0.0429
  11171  C77      100.1450  127.0550  123.8190 C.3    18  MOL18       0.0450
  11172  C77       98.8240  127.3180  124.3500 C.2    18  MOL18       0.3074
  11173  O77       98.8400  126.8220  125.5920 O.3    18  MOL18      -0.4582
  11174  O77       97.8950  127.8800  123.8170 O.2    18  MOL18      -0.2508
  11175  S77      108.7670  126.2750  117.7910 S.3    18  MOL18      -0.0897
  11176  C77      107.6620  124.8150  117.8270 C.3    18  MOL18       0.0162
  11177  C77      109.3140  137.0420  135.1880 C.2    18  MOL18       0.3344
  11178  C77      109.8380  138.0280  136.0900 C.2    18  MOL18       0.0264
  11179  C77      109.0310  138.9900  136.5600 C.2    18  MOL18      -0.0890
  11180  C78      111.2800  137.8760  136.3570 C.3    18  MOL18      -0.0335
  11181  O78      110.0210  136.4150  134.4280 O.2    18  MOL18      -0.2453
  11182  O78      107.9870  136.8320  135.2540 O.3    18  MOL18      -0.4577
  11183  C78      107.4230  136.1270  134.1850 C.3    18  MOL18       0.1293
  11184  C78      106.8980  134.7740  134.4150 C.3    18  MOL18       0.1341
  11185  C78      105.9760  134.5680  133.1250 C.3    18  MOL18      -0.0244
  11186  C78      105.6380  129.4540  132.0440 C.3    18  MOL18       0.0162
  11187  C78      105.9030  127.9450  131.7960 C.3    18  MOL18      -0.0305
  11188  C78      106.2620  127.0450  132.9390 C.3    18  MOL18       0.0050
  11189  S78      104.8010  126.2300  133.5020 S.3    18  MOL18      -0.0928
  11190  C79      106.9000  130.2730  132.0460 C.3    18  MOL18      -0.0403
  11191  C79      107.7060  129.8800  133.3590 C.3    18  MOL18      -0.0515
  11192  C79      108.9430  130.5190  134.2230 C.3    18  MOL18      -0.0429
  11193  C79      109.2090  131.7310  135.3280 C.3    18  MOL18       0.0450
  11194  C79      108.9860  133.3320  135.3200 C.2    18  MOL18       0.3074
  11195  O79      107.6730  133.7130  135.1480 O.3    18  MOL18      -0.4582
  11196  O79      109.9300  134.0660  135.3820 O.2    18  MOL18      -0.2508
  11197  S79      104.0550  127.9820  134.2420 S.3    18  MOL18      -0.0897
  11198  S79      104.0920  130.3300  131.4520 S.3    18  MOL18      -0.0897
  11199  C79      104.8900  122.5730  118.0860 C.2    18  MOL18       0.3344
  11200  C80      105.3770  122.5100  116.7010 C.2    18  MOL18       0.0264
  11201  C80      105.2700  123.6730  116.0950 C.2    18  MOL18      -0.0890
  11202  C80      106.0630  121.3580  116.0130 C.3    18  MOL18      -0.0335
  11203  O80      105.0960  121.6680  118.8520 O.2    18  MOL18      -0.2453
  11204  O80      104.1750  123.6550  118.5630 O.3    18  MOL18      -0.4577
  11205  C80      103.3410  123.2560  119.6440 C.3    18  MOL18       0.1293
  11206  C80      103.8080  123.5440  121.0000 C.3    18  MOL18       0.1341
  11207  C80      102.5980  123.4230  121.9510 C.3    18  MOL18      -0.0244
  11208  S80      109.0000  126.9000  120.6510 S.3    18  MOL18      -0.0897
  11209  C80      109.4420  127.2910  122.3640 C.3    18  MOL18       0.0162
  11210  C81      108.6450  128.5960  122.6520 C.3    18  MOL18      -0.0305
  11211  C81      107.7530  128.8080  123.8620 C.3    18  MOL18       0.0050
  11212  S81      105.9900  128.4060  123.4790 S.3    18  MOL18      -0.0928
  11213  C81      109.1900  126.0410  123.2100 C.3    18  MOL18      -0.0403
  11214  C81      109.4760  124.6310  122.6260 C.3    18  MOL18      -0.0515
  11215  C81      108.4120  123.4870  122.8540 C.3    18  MOL18      -0.0429
  11216  C81      107.1170  122.6930  122.4860 C.3    18  MOL18       0.0450
  11217  C81      105.6940  123.1750  122.3660 C.2    18  MOL18       0.3074
  11218  O81      105.1210  122.9480  121.1670 O.3    18  MOL18      -0.4582
  11219  O81      105.0380  123.5310  123.2950 O.2    18  MOL18      -0.2508
  11220  S82      104.3330  128.6090  124.7480 S.3    18  MOL18      -0.0897
  11221  C82       92.1060  110.1840  121.0330 C.3    18  MOL18      -0.0559
  11222  C82       93.0730  110.5760  122.1160 C.3    18  MOL18      -0.0533
  11223  C82       94.0930  111.5350  121.5160 C.3    18  MOL18      -0.0531
  11224  C82       93.8020  112.9490  122.0160 C.3    18  MOL18      -0.0531
  11225  C82       94.6090  114.1600  121.4780 C.3    18  MOL18      -0.0531
  11226  C82       94.8300  114.9870  122.7080 C.3    18  MOL18      -0.0531
  11227  C82       95.7700  116.1010  123.0940 C.3    18  MOL18      -0.0531
  11228  C82       96.2500  117.3610  122.4420 C.3    18  MOL18      -0.0530
  11229  C82       97.7410  117.3610  122.2430 C.3    18  MOL18      -0.0500
  11230  C83       98.5620  117.0080  123.4860 C.3    18  MOL18      -0.0185
  11231  C83       97.9390  117.2640  124.8520 C.3    18  MOL18       0.0925
  11232  C83       90.9930  109.3130  121.4820 C.3    18  MOL18      -0.0653
  11233  C83       97.6480  120.4960  126.4480 C.3    18  MOL18       0.0537
  11234  C83       97.5010  119.0150  126.3810 C.2    18  MOL18       0.3099
  11235  O83       97.7980  118.6510  125.1160 O.3    18  MOL18      -0.4644
  11236  O83       97.1830  118.2530  127.2680 O.2    18  MOL18      -0.2505
  11237  C83       98.1570  121.1920  125.1840 C.3    18  MOL18      -0.0523
  11238  C83       98.6240  120.9190  127.5180 C.3    18  MOL18      -0.0394
  11239  C83       96.1420  123.1260  128.3200 C.3    18  MOL18      -0.0497
  11240  O84      127.5380  138.0460  115.2170 O.2    18  MOL18      -0.2510
  11241  O84      126.9810  136.3290  116.5560 O.3    18  MOL18      -0.4806
  11242  C84      126.8760  137.0800  115.4180 C.2    18  MOL18       0.3047
  11243  C84      125.7770  136.5160  114.5190 C.3    18  MOL18       0.0448
  11244  C84      125.6220  137.2330  113.1260 C.3    18  MOL18      -0.0430
  11245  C84      124.5210  137.0030  111.9540 C.3    18  MOL18      -0.0516
  11246  C84      123.4050  136.7300  110.7990 C.3    18  MOL18      -0.0411
  11247  S84      119.9580  132.7330  111.6000 S.3    18  MOL18      -0.0928
  11248  C84      120.4620  133.6820  110.1210 C.3    18  MOL18       0.0049
  11249  C84      121.2470  134.8140  110.8290 C.3    18  MOL18      -0.0313
  11250  C85      117.0460  135.6200  123.3820 C.2    18  MOL18       0.3129
  11251  C85      115.8910  136.5700  123.5760 C.3    18  MOL18       0.0622
  11252  C85      114.5200  136.0340  124.0760 C.3    18  MOL18      -0.0370
  11253  C85      116.4980  137.8010  124.1410 C.3    18  MOL18      -0.0497
  11254  O85      118.1580  135.7360  123.8370 O.2    18  MOL18      -0.2502
  11255  O85      116.6730  134.6850  122.4640 O.3    18  MOL18      -0.4605
  11256  C85      117.7480  134.1980  121.6810 C.3    18  MOL18       0.1290
  11257  C85      117.6490  134.4110  120.2240 C.3    18  MOL18       0.1341
  11258  C85      119.0050  133.9460  119.7420 C.3    18  MOL18      -0.0244
  11259  C85      116.4740  128.9250  118.7510 C.3    18  MOL18       0.0162
  11260  C86      116.9090  127.5050  118.3990 C.3    18  MOL18      -0.0305
  11261  C86      115.7390  126.7640  117.7870 C.3    18  MOL18       0.0050
  11262  S86      115.7940  126.1710  116.1130 S.3    18  MOL18      -0.0928
  11263  C86      116.8500  129.2210  120.1630 C.3    18  MOL18      -0.0403
  11264  C86      116.9860  130.6830  120.5540 C.3    18  MOL18      -0.0515
  11265  C86      115.6350  131.3960  120.4500 C.3    18  MOL18      -0.0429
  11266  C86      115.3310  131.9770  119.0680 C.3    18  MOL18       0.0450
  11267  C86      116.4720  132.8530  118.7110 C.2    18  MOL18       0.3074
  11268  O86      116.5750  133.5750  119.8350 O.3    18  MOL18      -0.4582
  11269  O86      117.1440  132.9380  117.7140 O.2    18  MOL18      -0.2508
  11270  S87      121.9970  136.1400  108.4620 S.3    18  MOL18      -0.1607
  11271  C87      122.3780  135.6620  110.1660 C.3    18  MOL18       0.0058
  11272  C87      121.7900  134.5860  107.6300 C.3    18  MOL18      -0.0178
  11273  C87      110.7930  129.2450  125.5200 C.2    18  MOL18       0.3344
  11274  C87      110.7610  127.8320  125.9080 C.2    18  MOL18       0.0264
  11275  C87      111.4590  126.9630  125.1660 C.2    18  MOL18      -0.0890
  11276  C87      109.9230  127.4160  127.0860 C.3    18  MOL18      -0.0335
  11277  O87      110.1070  130.0380  126.1250 O.2    18  MOL18      -0.2453
  11278  O87      111.5510  129.6770  124.4500 O.3    18  MOL18      -0.4577
  11279  C87      111.3500  131.0580  124.1150 C.3    18  MOL18       0.1293
  11280  C88      111.6450  131.4150  122.6710 C.3    18  MOL18       0.1341
  11281  C88      112.7140  132.4590  122.2110 C.3    18  MOL18      -0.0244
  11282  C88      112.8230  126.2480  116.1320 C.3    18  MOL18       0.0162
  11283  C88      111.7130  125.6650  115.2090 C.3    18  MOL18      -0.0305
  11284  C88      110.2210  125.4790  115.3990 C.3    18  MOL18       0.0050
  11285  S88      109.0590  126.7860  115.8650 S.3    18  MOL18      -0.0928
  11286  C88      112.3500  127.1500  117.2890 C.3    18  MOL18      -0.0403
  11287  C88      112.7190  126.8620  118.7400 C.3    18  MOL18      -0.0515
  11288  C88      113.0350  128.1610  119.4680 C.3    18  MOL18      -0.0429
  11289  C88      111.7760  128.8420  119.9350 C.3    18  MOL18       0.0450
  11290  C89      112.1500  130.1420  120.5860 C.2    18  MOL18       0.3074
  11291  O89      111.6210  130.2100  121.8470 O.3    18  MOL18      -0.4582
  11292  O89      112.8040  130.9780  120.0250 O.2    18  MOL18      -0.2508
  11293  S89      114.1500  125.0520  116.4780 S.3    18  MOL18      -0.0897
  11294  C89      124.6940  138.7670  118.8540 C.2    18  MOL18       0.3344
  11295  C89      125.1380  139.8510  117.9890 C.2    18  MOL18       0.0264
  11296  C89      125.4040  139.4450  116.7550 C.2    18  MOL18      -0.0890
  11297  C89      125.2610  141.2700  118.4270 C.3    18  MOL18      -0.0335
  11298  O89      124.5680  138.9020  120.0520 O.2    18  MOL18      -0.2453
  11299  O89      124.3820  137.5640  118.2480 O.3    18  MOL18      -0.4577
  11300  C90      123.1660  136.9510  118.6780 C.3    18  MOL18       0.1293
  11301  C90      123.3500  135.4760  118.6510 C.3    18  MOL18       0.1341
  11302  C90      122.7990  134.6320  119.8330 C.3    18  MOL18      -0.0244
  11303  S90      119.2190  130.8170  111.3880 S.3    18  MOL18      -0.0897
  11304  C90      118.7170  130.9000  113.1320 C.3    18  MOL18       0.0162
  11305  C90      117.5720  130.0330  113.6500 C.3    18  MOL18      -0.0305
  11306  C90      117.2850  130.5350  115.0470 C.3    18  MOL18       0.0050
  11307  S90      116.1620  129.5260  116.0070 S.3    18  MOL18      -0.0928
  11308  C90      119.9390  130.8180  114.0340 C.3    18  MOL18      -0.0403
  11309  C90      120.1520  132.1750  114.7190 C.3    18  MOL18      -0.0515
  11310  C91      120.8470  132.2370  116.0680 C.3    18  MOL18      -0.0429
  11311  C91      121.9130  133.3200  116.2210 C.3    18  MOL18       0.0450
  11312  C91      121.8460  134.4240  117.2410 C.2    18  MOL18       0.3074
  11313  O91      123.1280  134.8240  117.3970 O.3    18  MOL18      -0.4582
  11314  O91      120.9410  134.9110  117.8580 O.2    18  MOL18      -0.2508
  11315  S91      117.2080  130.0840  117.6430 S.3    18  MOL18      -0.0897
  11316  C91      111.8610  145.2460  134.7010 C.3    18  MOL18      -0.0559
  11317  C91      110.6930  144.5460  134.0420 C.3    18  MOL18      -0.0533
  11318  C91      111.3470  143.6530  132.9830 C.3    18  MOL18      -0.0531
  11319  C91      110.3520  143.3170  131.9410 C.3    18  MOL18      -0.0531
  11320  C92      110.6240  142.2310  130.9530 C.3    18  MOL18      -0.0531
  11321  C92      109.2780  142.0320  130.2580 C.3    18  MOL18      -0.0531
  11322  C92      108.9670  140.6820  129.6290 C.3    18  MOL18      -0.0531
  11323  C92      110.0710  139.6420  129.4160 C.3    18  MOL18      -0.0530
  11324  C92      109.6140  138.2260  129.6050 C.3    18  MOL18      -0.0500
  11325  C92      110.0600  137.3760  128.4590 C.3    18  MOL18      -0.0185
  11326  C92      110.4750  135.9490  128.6870 C.3    18  MOL18       0.0925
  11327  C92      112.0530  145.7000  136.1230 C.3    18  MOL18      -0.0653
  11328  C92      113.6620  136.1180  126.9550 C.3    18  MOL18       0.0537
  11329  C92      112.4350  135.3390  127.2960 C.2    18  MOL18       0.3099
  11330  O93      111.8340  136.0040  128.2850 O.3    18  MOL18      -0.4644
  11331  O93      112.0680  134.3100  126.7980 O.2    18  MOL18      -0.2505
  11332  C93      113.8530  137.2710  127.9750 C.3    18  MOL18      -0.0523
  11333  C93      113.7080  136.3680  125.3730 C.3    18  MOL18      -0.0394
  11334  C93      115.5550  136.9000  122.1420 C.3    18  MOL18      -0.0497
  11335 5H93      102.9870  136.0320  137.3110 H      18  MOL18       0.2951
  11336 6H93      103.9000  135.4070  134.9720 H      18  MOL18       0.0377
  11337 7H93      102.7980  134.8750  136.1850 H      18  MOL18       0.0377
  11338 8H93      104.4550  132.6820  135.1940 H      18  MOL18       0.0270
  11339 9H93      103.8960  133.5490  133.8360 H      18  MOL18       0.0270
  11340 0H94      101.9790  132.7760  133.6250 H      18  MOL18       0.0266
  11341 1H94      101.4520  132.3040  135.1140 H      18  MOL18       0.0266
  11342 2H94      103.8340  131.1060  133.5970 H      18  MOL18       0.0276
  11343 3H94      102.1570  130.9680  133.0160 H      18  MOL18       0.0276
  11344 4H94      100.6840  126.5760  135.1160 H      18  MOL18       0.0385
  11345 5H94      102.3140  126.9000  135.3790 H      18  MOL18       0.0385
  11346 6H94      100.6790  129.3450  134.0990 H      18  MOL18       0.0284
  11347 7H94      101.0420  127.8310  133.4200 H      18  MOL18       0.0284
  11348 8H94       94.9630  135.8650  146.9900 H      18  MOL18       0.0276
  11349 9H94       94.0470  134.6970  146.1480 H      18  MOL18       0.0276
  11350 0H95       94.4540  138.8080  146.3750 H      18  MOL18       0.0240
  11351 1H95       93.9990  137.7200  147.5570 H      18  MOL18       0.0240
  11352 2H95       92.7880  138.3590  146.5260 H      18  MOL18       0.0240
  11353 3H95       95.2280  138.5270  141.6000 H      18  MOL18       0.0735
  11354 4H95       96.4400  137.3790  142.0460 H      18  MOL18       0.0735
  11355 5H95       95.7570  137.1080  139.9350 H      18  MOL18       0.0765
  11356 6H95       95.7650  134.8740  139.9340 H      18  MOL18       0.0266
  11357 7H95       95.5960  134.6560  141.6030 H      18  MOL18       0.0266
  11358 8H95       96.8880  135.7120  141.1420 H      18  MOL18       0.0266
  11359 9H95       92.8220  130.3360  134.3170 H      18  MOL18       0.0421
  11360 0H96       94.9340  129.3440  136.0670 H      18  MOL18       0.0284
  11361 1H96       94.0710  128.8060  134.6900 H      18  MOL18       0.0284
  11362 2H96       94.1050  127.8260  137.5540 H      18  MOL18       0.0385
  11363 3H96       94.5980  127.2870  136.0520 H      18  MOL18       0.0385
  11364 4H96       93.3690  132.6220  135.1200 H      18  MOL18       0.0276
  11365 5H96       92.0150  132.0530  134.3840 H      18  MOL18       0.0276
  11366 6H96       90.6250  133.1030  135.8920 H      18  MOL18       0.0266
  11367 7H96       91.8260  133.9500  134.9570 H      18  MOL18       0.0266
  11368 8H96       90.6230  134.2590  137.5900 H      18  MOL18       0.0270
  11369 9H96       90.9300  135.2950  136.2630 H      18  MOL18       0.0270
  11370 0H97       91.2350  136.1190  138.4230 H      18  MOL18       0.0377
  11371 1H97       92.2270  136.4180  137.0800 H      18  MOL18       0.0377
  11372 2H97      102.4730  129.0430  132.6590 H      18  MOL18       0.0421
  11373 3H97       86.1860  130.1910  147.6190 H      18  MOL18       0.0540
  11374 4H97       87.6760  129.5730  146.7650 H      18  MOL18       0.0540
  11375 5H97       86.5840  131.8050  149.5200 H      18  MOL18       0.0280
  11376 6H97       86.1970  132.6400  148.0830 H      18  MOL18       0.0280
  11377 7H97       87.5960  133.2270  148.9800 H      18  MOL18       0.0280
  11378 8H97       91.9790  131.5240  146.1510 H      18  MOL18       0.0735
  11379 9H97       91.6390  129.7910  146.0710 H      18  MOL18       0.0735
  11380 0H98       91.4380  131.6930  143.7610 H      18  MOL18       0.0765
  11381 1H98       93.4030  130.9980  144.8980 H      18  MOL18       0.0266
  11382 2H98       93.4810  130.5150  143.2540 H      18  MOL18       0.0266
  11383 3H98       93.1550  129.3130  144.5030 H      18  MOL18       0.0266
  11384 4H98       90.5560  125.2750  137.6980 H      18  MOL18       0.0421
  11385 5H98       90.5210  122.5820  137.0090 H      18  MOL18       0.0284
  11386 6H98       90.0030  124.0760  136.2230 H      18  MOL18       0.0284
  11387 7H98       88.7480  124.1420  138.7450 H      18  MOL18       0.0377
  11388 8H98       88.7890  122.4090  138.2680 H      18  MOL18       0.0377
  11389 9H98       90.0190  123.2560  139.8140 H      18  MOL18       0.0276
  11390 0H99       91.5580  123.7210  140.2740 H      18  MOL18       0.0276
  11391 1H99       91.1360  125.2450  141.4380 H      18  MOL18       0.0266
  11392 2H99       89.8060  124.2310  141.7580 H      18  MOL18       0.0266
  11393 3H99       90.2060  126.1040  142.8430 H      18  MOL18       0.0270
  11394 4H99       88.7750  125.6850  142.4790 H      18  MOL18       0.0270
  11395 5H99       88.5480  127.5790  143.4680 H      18  MOL18       0.0377
  11396 6H99       88.0800  128.0780  141.9270 H      18  MOL18       0.0377
  11397 7H99       85.3220  123.5670  138.4190 H      18  MOL18       0.0340
  11398 8H99       85.5810  125.2290  138.1460 H      18  MOL18       0.0340
  11399 9H99       86.5980  124.4470  139.2980 H      18  MOL18       0.0340
  11400  H10      103.0060  141.5170  134.8620 H      18  MOL18       0.0540
  11401  H10      101.8880  140.2580  135.5860 H      18  MOL18       0.0540
  11402  H10      105.7830  140.8760  136.7310 H      18  MOL18       0.0280
  11403  H10      104.9610  141.8710  137.9340 H      18  MOL18       0.0280
  11404  H10      104.8470  142.3320  136.2490 H      18  MOL18       0.0280
  11405  H10      101.3970  140.1210  139.2360 H      18  MOL18       0.0735
  11406  H10      100.3060  139.0910  138.4100 H      18  MOL18       0.0735
  11407  H10      102.5900  138.5970  140.2790 H      18  MOL18       0.0765
  11408  H10      100.7520  137.5150  141.7580 H      18  MOL18       0.0266
  11409  H10       99.6160  138.1850  140.5960 H      18  MOL18       0.0266
  11410  H10      100.7630  139.2310  141.4290 H      18  MOL18       0.0266
  11411  H10      100.9410  130.9230  138.1970 H      18  MOL18       0.0421
  11412  H10       99.3110  132.1240  137.6120 H      18  MOL18       0.0284
  11413  H10      100.2530  131.3420  136.4020 H      18  MOL18       0.0284
  11414  H10       98.7590  131.0740  134.9860 H      18  MOL18       0.0385
  11415  H10       98.3410  132.4070  135.5620 H      18  MOL18       0.0385
  11416  H10      100.7390  130.4770  140.2150 H      18  MOL18       0.0276
  11417  H10       99.1080  130.6400  140.3100 H      18  MOL18       0.0276
  11418  H10       99.5740  132.6410  140.7710 H      18  MOL18       0.0266
  11419  H10       99.8650  133.0100  139.1080 H      18  MOL18       0.0266
  11420  H10      102.3170  132.7800  140.7430 H      18  MOL18       0.0270
  11421  H10      101.1090  133.7920  141.3330 H      18  MOL18       0.0270
  11422  H10      102.9040  134.4240  138.9710 H      18  MOL18       0.0377
  11423  H10      102.7640  135.0050  140.4450 H      18  MOL18       0.0377
  11424  H10       86.3900  137.8670  160.4220 H      18  MOL18       0.0263
  11425  H10       84.8560  138.5950  160.1910 H      18  MOL18       0.0263
  11426  H10       87.1870  138.4210  158.3560 H      18  MOL18       0.0265
  11427  H10       85.8090  139.3880  157.9100 H      18  MOL18       0.0265
  11428  H10       84.5130  137.2650  157.5650 H      18  MOL18       0.0265
  11429  H10       85.9260  136.3160  157.9540 H      18  MOL18       0.0265
  11430  H10       87.1440  137.0430  156.1900 H      18  MOL18       0.0265
  11431  H10       86.3730  138.6090  156.1050 H      18  MOL18       0.0265
  11432  H10       84.4710  137.2440  154.7950 H      18  MOL18       0.0265
  11433  H10       85.7620  136.1310  154.5630 H      18  MOL18       0.0265
  11434  H10       86.7210  138.9590  154.1700 H      18  MOL18       0.0265
  11435  H10       85.2540  138.7040  153.2840 H      18  MOL18       0.0265
  11436  H10       86.2080  137.4620  151.7310 H      18  MOL18       0.0265
  11437  H10       86.8900  136.3650  152.9260 H      18  MOL18       0.0265
  11438  H10       88.9630  137.6740  153.0350 H      18  MOL18       0.0265
  11439  H10       88.3400  138.8480  151.9040 H      18  MOL18       0.0265
  11440  H10       88.2680  137.2580  150.1880 H      18  MOL18       0.0266
  11441  H10       87.9270  135.9580  151.2700 H      18  MOL18       0.0266
  11442  H10       90.1270  135.3890  151.5970 H      18  MOL18       0.0298
  11443  H10       90.7770  136.7780  150.7090 H      18  MOL18       0.0298
  11444  H10       89.2180  136.1290  148.8960 H      18  MOL18       0.0697
  11445  H10       89.2020  134.4990  149.5770 H      18  MOL18       0.0697
  11446  H10       86.2270  140.8220  159.6080 H      18  MOL18       0.0230
  11447  H10       87.6410  139.9490  160.1940 H      18  MOL18       0.0230
  11448  H10       86.3380  140.3490  161.2790 H      18  MOL18       0.0230
  11449  H10       92.4380  133.3870  147.6610 H      18  MOL18       0.0411
  11450  H10       94.6100  133.6600  149.5510 H      18  MOL18       0.0238
  11451  H10       95.0610  134.1610  147.9500 H      18  MOL18       0.0238
  11452  H10       94.4040  132.6130  148.1470 H      18  MOL18       0.0238
  11453  H10       92.7820  136.3470  148.1820 H      18  MOL18       0.0273
  11454  H10       91.8870  135.5680  146.9520 H      18  MOL18       0.0273
  11455  H10       91.8960  136.4160  145.3570 H      18  MOL18       0.0240
  11456  H10       92.7130  136.4030  143.8230 H      18  MOL18       0.0240
  11457  H10       92.3800  137.9260  144.6090 H      18  MOL18       0.0240
  11458  H10      109.4730  118.3480  119.9090 H      18  MOL18       0.2951
  11459  H10      109.6540  120.0290  119.2240 H      18  MOL18       0.0377
  11460  H10      107.9390  120.4440  119.3960 H      18  MOL18       0.0377
  11461  H10      108.4820  120.5530  116.5430 H      18  MOL18       0.0270
  11462  H10      109.8860  121.2430  117.3410 H      18  MOL18       0.0270
  11463  H10      108.2600  122.5050  118.8380 H      18  MOL18       0.0266
  11464  H10      107.0590  121.9260  117.9240 H      18  MOL18       0.0266
  11465  H10      108.2380  123.6790  116.0990 H      18  MOL18       0.0276
  11466  H10      109.3700  123.7440  117.4460 H      18  MOL18       0.0276
  11467  H10      105.9300  126.1400  119.0430 H      18  MOL18       0.0385
  11468  H10      105.5840  124.9970  120.3060 H      18  MOL18       0.0385
  11469  H10      106.7450  123.5590  119.3280 H      18  MOL18       0.0284
  11470  H10      108.2040  124.3780  119.8540 H      18  MOL18       0.0284
  11471  H10       99.5850  122.7700  127.9470 H      18  MOL18       0.0276
  11472  H10       98.3500  122.8930  126.7130 H      18  MOL18       0.0276
  11473  H10       98.9610  121.9310  129.9160 H      18  MOL18       0.0240
  11474  H10       97.4360  121.0750  129.8480 H      18  MOL18       0.0240
  11475  H10       97.5530  122.5430  130.8150 H      18  MOL18       0.0240
  11476  H10       96.5560  125.9020  127.7650 H      18  MOL18       0.0735
  11477  H10       97.4310  125.1740  126.4720 H      18  MOL18       0.0735
  11478  H10       96.8590  127.3560  125.9880 H      18  MOL18       0.0765
  11479  H10       98.1550  129.2020  126.0720 H      18  MOL18       0.0266
  11480  H10       99.4030  128.4920  127.0870 H      18  MOL18       0.0266
  11481  H10       97.8850  129.0260  127.7910 H      18  MOL18       0.0266
  11482  H10      104.0770  128.3470  126.9700 H      18  MOL18       0.0421
  11483  H10      102.9860  131.2340  126.9750 H      18  MOL18       0.0284
  11484  H10      104.6890  130.5800  127.4590 H      18  MOL18       0.0284
  11485  H10      102.9590  132.3890  128.4810 H      18  MOL18       0.0385
  11486  H10      104.5240  132.3530  128.0830 H      18  MOL18       0.0385
  11487  H10      101.9000  129.2000  125.2630 H      18  MOL18       0.0276
  11488  H10      101.5300  129.0730  126.9050 H      18  MOL18       0.0276
  11489  H10      101.8650  126.4890  126.7310 H      18  MOL18       0.0266
  11490  H10      103.0590  126.7290  125.6470 H      18  MOL18       0.0266
  11491  H10      100.9010  125.4830  125.1450 H      18  MOL18       0.0270
  11492  H10      101.9780  126.0670  123.9970 H      18  MOL18       0.0270
  11493  H10      100.0610  126.4400  122.9190 H      18  MOL18       0.0377
  11494  H10      100.4330  128.0450  123.4920 H      18  MOL18       0.0377
  11495  H10      106.7490  125.0770  117.3060 H      18  MOL18       0.0421
  11496  H10      108.0450  139.1450  136.1480 H      18  MOL18       0.0540
  11497  H10      109.2650  139.7460  137.2960 H      18  MOL18       0.0540
  11498  H10      111.5530  137.7160  137.4090 H      18  MOL18       0.0280
  11499  H10      111.6470  138.7950  135.9800 H      18  MOL18       0.0280
  11500  H11      111.7180  137.0770  135.7480 H      18  MOL18       0.0280
  11501  H11      106.5590  136.7200  133.8470 H      18  MOL18       0.0735
  11502  H11      108.1280  136.1030  133.3640 H      18  MOL18       0.0735
  11503  H11      106.0810  134.8760  135.0930 H      18  MOL18       0.0765
  11504  H11      105.0820  135.1750  133.3160 H      18  MOL18       0.0266
  11505  H11      105.6120  133.5800  132.8350 H      18  MOL18       0.0266
  11506  H11      106.3420  134.9770  132.1790 H      18  MOL18       0.0266
  11507  H11      105.3690  129.4960  133.0630 H      18  MOL18       0.0421
  11508  H11      106.7540  127.9240  131.1340 H      18  MOL18       0.0284
  11509  H11      105.1150  127.4050  131.2890 H      18  MOL18       0.0284
  11510  H11      106.6110  127.5940  133.7960 H      18  MOL18       0.0385
  11511  H11      106.9530  126.2620  132.5990 H      18  MOL18       0.0385
  11512  H11      106.5760  131.2960  131.8070 H      18  MOL18       0.0276
  11513  H11      107.5690  130.1170  131.2160 H      18  MOL18       0.0276
  11514  H11      108.0700  128.9610  132.9680 H      18  MOL18       0.0266
  11515  H11      106.9680  129.5000  134.0660 H      18  MOL18       0.0266
  11516  H11      109.7150  130.6540  133.4630 H      18  MOL18       0.0270
  11517  H11      109.3540  129.6850  134.7930 H      18  MOL18       0.0270
  11518  H11      110.3030  131.6840  135.3660 H      18  MOL18       0.0377
  11519  H11      108.9080  131.3670  136.3220 H      18  MOL18       0.0377
  11520  H11      105.6550  123.8370  115.1050 H      18  MOL18       0.0540
  11521  H11      104.9090  124.5020  116.6920 H      18  MOL18       0.0540
  11522  H11      106.3700  120.5380  116.6720 H      18  MOL18       0.0280
  11523  H11      106.9790  121.7380  115.5480 H      18  MOL18       0.0280
  11524  H11      105.4260  120.9650  115.2290 H      18  MOL18       0.0280
  11525  H11      102.3910  123.7190  119.5190 H      18  MOL18       0.0735
  11526  H11      103.0370  122.2100  119.5550 H      18  MOL18       0.0735
  11527  H11      103.9750  124.5930  121.0930 H      18  MOL18       0.0765
  11528  H11      102.0690  124.3890  121.9490 H      18  MOL18       0.0266
  11529  H11      102.8650  123.3200  123.0010 H      18  MOL18       0.0266
  11530  H11      101.8460  122.6880  121.6380 H      18  MOL18       0.0266
  11531  H11      110.5000  127.5760  122.3800 H      18  MOL18       0.0421
  11532  H11      109.4020  129.3990  122.6910 H      18  MOL18       0.0284
  11533  H11      108.0170  128.9010  121.8050 H      18  MOL18       0.0284
  11534  H11      107.8780  129.8940  123.9670 H      18  MOL18       0.0385
  11535  H11      108.1700  128.2880  124.7300 H      18  MOL18       0.0385
  11536  H11      108.1390  126.0920  123.2560 H      18  MOL18       0.0276
  11537  H11      109.4970  126.1330  124.2550 H      18  MOL18       0.0276
  11538  H11      110.3130  124.2200  123.2220 H      18  MOL18       0.0266
  11539  H11      109.8800  124.7540  121.6200 H      18  MOL18       0.0266
  11540  H11      108.0160  123.8710  123.7770 H      18  MOL18       0.0270
  11541  H11      109.0180  122.6430  123.2030 H      18  MOL18       0.0270
  11542  H11      107.0280  122.2190  123.4700 H      18  MOL18       0.0377
  11543  H11      107.1760  121.7980  121.8640 H      18  MOL18       0.0377
  11544  H11       92.6140  109.7340  120.1760 H      18  MOL18       0.0263
  11545  H11       91.5910  111.0690  120.6960 H      18  MOL18       0.0263
  11546  H11       93.5430  109.6890  122.5590 H      18  MOL18       0.0265
  11547  H11       92.4920  111.0640  122.9160 H      18  MOL18       0.0265
  11548  H11       94.0090  111.4730  120.4440 H      18  MOL18       0.0265
  11549  H11       95.1290  111.2060  121.6350 H      18  MOL18       0.0265
  11550  H11       93.8810  112.8930  123.1070 H      18  MOL18       0.0265
  11551  H11       92.7320  113.1330  121.8980 H      18  MOL18       0.0265
  11552  H11       94.0740  114.7980  120.8010 H      18  MOL18       0.0265
  11553  H11       95.4430  113.8710  120.8400 H      18  MOL18       0.0265
  11554  H11       95.1720  114.2660  123.4370 H      18  MOL18       0.0265
  11555  H11       93.8170  115.2620  123.0280 H      18  MOL18       0.0265
  11556  H11       96.7200  115.6300  123.2960 H      18  MOL18       0.0265
  11557  H11       95.3830  116.3320  124.0930 H      18  MOL18       0.0265
  11558  H11       96.2460  118.1060  123.1990 H      18  MOL18       0.0265
  11559  H11       95.6590  117.7870  121.6490 H      18  MOL18       0.0265
  11560  H11       97.9920  118.3620  121.9160 H      18  MOL18       0.0266
  11561  H11       97.9610  116.6330  121.4830 H      18  MOL18       0.0266
  11562  H11       99.5330  117.5210  123.4800 H      18  MOL18       0.0298
  11563  H11       98.8210  115.9480  123.3850 H      18  MOL18       0.0298
  11564  H11       98.6300  116.8390  125.5510 H      18  MOL18       0.0697
  11565  H11       97.0000  116.7600  125.0840 H      18  MOL18       0.0697
  11566  H11       90.4960  108.9640  120.5770 H      18  MOL18       0.0230
  11567  H11       90.2890  109.9130  122.0710 H      18  MOL18       0.0230
  11568  H11       91.3660  108.4780  122.0760 H      18  MOL18       0.0230
  11569  H11       96.6440  120.8490  126.7040 H      18  MOL18       0.0411
  11570  H11       99.1700  121.5910  125.3290 H      18  MOL18       0.0238
  11571  H11       97.5570  122.0500  124.9450 H      18  MOL18       0.0238
  11572  H11       98.1210  120.5780  124.2940 H      18  MOL18       0.0238
  11573  H11       99.6400  120.6270  127.1960 H      18  MOL18       0.0273
  11574  H11       98.4590  120.3840  128.4570 H      18  MOL18       0.0273
  11575  H11       95.8330  122.2370  127.7710 H      18  MOL18       0.0240
  11576  H11       95.9030  124.0180  127.7380 H      18  MOL18       0.0240
  11577  H11       95.4810  123.1830  129.1860 H      18  MOL18       0.0240
  11578  H11      126.3180  135.6380  116.6080 H      18  MOL18       0.2951
  11579  H11      124.8830  136.5330  115.1650 H      18  MOL18       0.0377
  11580  H11      126.0150  135.4600  114.3560 H      18  MOL18       0.0377
  11581  H11      126.6160  137.0950  112.7020 H      18  MOL18       0.0270
  11582  H11      125.6120  138.3000  113.2060 H      18  MOL18       0.0270
  11583  H11      123.7160  137.0860  112.6630 H      18  MOL18       0.0266
  11584  H11      124.9940  136.0740  111.7600 H      18  MOL18       0.0266
  11585  H11      124.1370  136.5250  110.0540 H      18  MOL18       0.0276
  11586  H11      123.0140  137.7340  110.6490 H      18  MOL18       0.0276
  11587  H11      119.6080  134.0450  109.5420 H      18  MOL18       0.0385
  11588  H11      121.1000  133.0910  109.4640 H      18  MOL18       0.0385
  11589  H11      121.8710  134.2220  111.4880 H      18  MOL18       0.0284
  11590  H11      120.5720  135.3580  111.5010 H      18  MOL18       0.0284
  11591  H11      114.4810  134.9820  123.7540 H      18  MOL18       0.0276
  11592  H11      113.7790  136.4820  123.3780 H      18  MOL18       0.0276
  11593  H11      117.1630  137.5480  124.9440 H      18  MOL18       0.0240
  11594  H11      115.7630  138.4910  124.5150 H      18  MOL18       0.0240
  11595  H11      117.1280  138.2140  123.3490 H      18  MOL18       0.0240
  11596  H11      118.7090  134.5750  122.0460 H      18  MOL18       0.0735
  11597  H11      117.7750  133.1070  121.7540 H      18  MOL18       0.0735
  11598  H11      117.3820  135.4390  119.9710 H      18  MOL18       0.0765
  11599  H11      119.0450  133.6610  118.6910 H      18  MOL18       0.0266
  11600  H12      119.2770  133.0650  120.3310 H      18  MOL18       0.0266
  11601  H12      119.7650  134.7050  119.9280 H      18  MOL18       0.0266
  11602  H12      115.3920  129.0560  118.7020 H      18  MOL18       0.0421
  11603  H12      117.1520  126.9720  119.3330 H      18  MOL18       0.0284
  11604  H12      117.8220  127.4910  117.7880 H      18  MOL18       0.0284
  11605  H12      114.8650  127.4160  117.8380 H      18  MOL18       0.0385
  11606  H12      115.5470  125.8960  118.4230 H      18  MOL18       0.0385
  11607  H12      117.7910  128.7130  120.3480 H      18  MOL18       0.0276
  11608  H12      116.0860  128.7160  120.7660 H      18  MOL18       0.0276
  11609  H12      117.7560  131.1970  119.9660 H      18  MOL18       0.0266
  11610  H12      117.4090  130.6990  121.5600 H      18  MOL18       0.0266
  11611  H12      115.5570  132.2210  121.1790 H      18  MOL18       0.0270
  11612  H12      114.8520  130.6820  120.7230 H      18  MOL18       0.0270
  11613  H12      114.4510  132.6310  119.1550 H      18  MOL18       0.0377
  11614  H12      115.1110  131.2330  118.3090 H      18  MOL18       0.0377
  11615  H12      123.0140  134.8190  109.9120 H      18  MOL18       0.0412
  11616  H12      121.8950  134.8520  106.5800 H      18  MOL18       0.0341
  11617  H12      120.7940  134.1610  107.7880 H      18  MOL18       0.0341
  11618  H12      122.5680  133.8770  107.9180 H      18  MOL18       0.0341
  11619  H12      112.0630  127.2960  124.3290 H      18  MOL18       0.0540
  11620  H12      111.4450  125.8860  125.3370 H      18  MOL18       0.0540
  11621  H12      110.4550  126.6790  127.6970 H      18  MOL18       0.0280
  11622  H12      109.0020  126.9610  126.7150 H      18  MOL18       0.0280
  11623  H12      109.6520  128.2580  127.7390 H      18  MOL18       0.0280
  11624  H12      110.2680  131.2370  124.2180 H      18  MOL18       0.0735
  11625  H12      111.8040  131.6960  124.8870 H      18  MOL18       0.0735
  11626  H12      110.7150  131.9600  122.5240 H      18  MOL18       0.0765
  11627  H12      112.5630  132.8950  121.2150 H      18  MOL18       0.0266
  11628  H12      113.6690  131.9610  122.0730 H      18  MOL18       0.0266
  11629  H12      112.7730  133.3420  122.8640 H      18  MOL18       0.0266
  11630  H12      113.3940  126.8490  115.4180 H      18  MOL18       0.0421
  11631  H12      112.0220  124.6890  114.8220 H      18  MOL18       0.0284
  11632  H12      111.7200  126.3090  114.3500 H      18  MOL18       0.0284
  11633  H12      110.0730  124.6810  116.0950 H      18  MOL18       0.0385
  11634  H12      109.8530  125.0740  114.4430 H      18  MOL18       0.0385
  11635  H12      111.2600  127.2520  117.2390 H      18  MOL18       0.0276
  11636  H12      112.7040  128.1640  117.1090 H      18  MOL18       0.0276
  11637  H12      113.5450  126.1590  118.8550 H      18  MOL18       0.0266
  11638  H12      111.8370  126.4160  119.1900 H      18  MOL18       0.0266
  11639  H12      113.5310  128.8620  118.7810 H      18  MOL18       0.0270
  11640  H12      113.7220  128.0170  120.3060 H      18  MOL18       0.0270
  11641  H12      111.1610  128.2830  120.6280 H      18  MOL18       0.0377
  11642  H12      111.1830  129.0550  119.0350 H      18  MOL18       0.0377
  11643  H12      125.6880  140.1060  115.9690 H      18  MOL18       0.0540
  11644  H12      125.3230  138.4010  116.4960 H      18  MOL18       0.0540
  11645  H12      125.6630  141.3050  119.4360 H      18  MOL18       0.0280
  11646  H12      124.3060  141.7990  118.3950 H      18  MOL18       0.0280
  11647  H12      125.9190  141.8230  117.7620 H      18  MOL18       0.0280
  11648  H12      122.9550  137.2750  119.7010 H      18  MOL18       0.0735
  11649  H12      122.3490  137.2710  118.0200 H      18  MOL18       0.0735
  11650  H12      124.4290  135.4650  118.6390 H      18  MOL18       0.0765
  11651  H12      123.1840  133.6050  119.7480 H      18  MOL18       0.0266
  11652  H12      121.7130  134.5270  119.8730 H      18  MOL18       0.0266
  11653  H12      123.0690  135.0370  120.8170 H      18  MOL18       0.0266
  11654  H12      118.3730  131.9150  113.2730 H      18  MOL18       0.0421
  11655  H12      117.9440  129.0430  113.8260 H      18  MOL18       0.0284
  11656  H12      116.6980  129.9520  112.9890 H      18  MOL18       0.0284
  11657  H12      116.9710  131.5750  115.1000 H      18  MOL18       0.0385
  11658  H12      118.2440  130.4980  115.5650 H      18  MOL18       0.0385
  11659  H12      120.7710  130.5000  113.4150 H      18  MOL18       0.0276
  11660  H12      119.8620  130.0220  114.7620 H      18  MOL18       0.0276
  11661  H12      119.1690  132.6290  114.8960 H      18  MOL18       0.0266
  11662  H12      120.6750  132.8010  114.0010 H      18  MOL18       0.0266
  11663  H12      121.4210  131.3230  116.1300 H      18  MOL18       0.0270
  11664  H12      120.0610  132.2350  116.8380 H      18  MOL18       0.0270
  11665  H12      122.0690  133.8240  115.2750 H      18  MOL18       0.0377
  11666  H12      122.8800  132.8580  116.4660 H      18  MOL18       0.0377
  11667  H12      112.1060  146.1330  134.1170 H      18  MOL18       0.0263
  11668  H12      112.6630  144.5320  134.5630 H      18  MOL18       0.0263
  11669  H12      110.0050  145.2480  133.5400 H      18  MOL18       0.0265
  11670  H12      110.1000  143.9390  134.7290 H      18  MOL18       0.0265
  11671  H12      111.7950  142.7620  133.4280 H      18  MOL18       0.0265
  11672  H12      112.1500  144.1790  132.4840 H      18  MOL18       0.0265
  11673  H12      110.1310  144.2530  131.4140 H      18  MOL18       0.0265
  11674  H12      109.4980  142.9490  132.5020 H      18  MOL18       0.0265
  11675  H12      110.9510  141.3370  131.4850 H      18  MOL18       0.0265
  11676  H12      111.4570  142.4810  130.2920 H      18  MOL18       0.0265
  11677  H12      109.0880  142.8220  129.5170 H      18  MOL18       0.0265
  11678  H12      108.4690  142.1930  130.9890 H      18  MOL18       0.0265
  11679  H12      108.5170  140.9250  128.6640 H      18  MOL18       0.0265
  11680  H12      108.1650  140.2410  130.2240 H      18  MOL18       0.0265
  11681  H12      111.0080  139.8280  129.9610 H      18  MOL18       0.0265
  11682  H12      110.3210  139.6200  128.3710 H      18  MOL18       0.0265
  11683  H12      108.5290  138.2110  129.5840 H      18  MOL18       0.0266
  11684  H12      110.0650  137.8840  130.5380 H      18  MOL18       0.0266
  11685  H12      110.9930  137.8530  128.1720 H      18  MOL18       0.0298
  11686  H12      109.3420  137.4760  127.6290 H      18  MOL18       0.0298
  11687  H12      109.8120  135.3150  128.1060 H      18  MOL18       0.0697
  11688  H12      110.5000  135.5970  129.7140 H      18  MOL18       0.0697
  11689  H12      111.6350  146.6850  136.2670 H      18  MOL18       0.0230
  11690  H12      113.1370  145.8320  136.2130 H      18  MOL18       0.0230
  11691  H12      111.7030  145.0370  136.9120 H      18  MOL18       0.0230
  11692  H12      114.3410  135.3710  127.3080 H      18  MOL18       0.0411
  11693  H12      114.7920  137.7890  127.8100 H      18  MOL18       0.0238
  11694  H12      113.8980  136.9150  129.0000 H      18  MOL18       0.0238
  11695  H12      113.0090  137.9510  128.0580 H      18  MOL18       0.0238
  11696  H12      113.5170  137.4210  125.1690 H      18  MOL18       0.0273
  11697  H12      112.8330  135.7940  125.0660 H      18  MOL18       0.0273
  11698  H12      115.1580  136.0000  121.6790 H      18  MOL18       0.0240
  11699  H12      116.4230  137.2260  121.5660 H      18  MOL18       0.0240
  11700  H13      114.8020  137.6900  122.1620 H      18  MOL18       0.0240
  11701  O65      108.9640  101.1870  145.0020 O.2    19  MOL19      -0.2510
  11702  O65      107.9200  102.6940  143.8270 O.3    19  MOL19      -0.4806
  11703  C65      108.0200  101.4230  144.2960 C.2    19  MOL19       0.3047
  11704  C65      106.8030  100.6030  143.6660 C.3    19  MOL19       0.0448
  11705  C65      105.8230   99.4260  144.1230 C.3    19  MOL19      -0.0430
  11706  C65      104.1930   99.2510  143.9990 C.3    19  MOL19      -0.0515
  11707  C65      103.6000   97.9950  144.8940 C.3    19  MOL19      -0.0403
  11708  S65      100.0960  100.3500  148.4110 S.3    19  MOL19      -0.0928
  11709  C65      100.4020   98.6070  147.3650 C.3    19  MOL19       0.0050
  11710  C66      101.0060   97.9790  145.9520 C.3    19  MOL19      -0.0305
  11711  C66      102.4110  112.2440  142.1700 C.2    19  MOL19       0.3129
  11712  C66      101.3590  113.4460  142.3160 C.3    19  MOL19       0.0622
  11713  C66      100.7340  113.8280  143.6690 C.3    19  MOL19      -0.0370
  11714  C66      101.9910  114.7760  142.0140 C.3    19  MOL19      -0.0497
  11715  O66      103.4510  112.1230  142.7530 O.2    19  MOL19      -0.2502
  11716  O66      101.9450  111.3280  141.2430 O.3    19  MOL19      -0.4605
  11717  C66      102.5270  110.0630  140.7230 C.3    19  MOL19       0.1290
  11718  C66      101.6970  108.7460  140.5370 C.3    19  MOL19       0.1341
  11719  C66      101.5680  108.2140  141.9090 C.3    19  MOL19      -0.0244
  11720  C67       96.1630  102.6730  140.9910 C.3    19  MOL19       0.0162
  11721  C67       95.7370  102.2960  142.5260 C.3    19  MOL19      -0.0305
  11722  C67       94.8070  102.5240  143.8270 C.3    19  MOL19       0.0050
  11723  S67       92.9260  102.5900  143.9070 S.3    19  MOL19      -0.0928
  11724  C67       96.4400  103.6140  139.6130 C.3    19  MOL19      -0.0403
  11725  C67       96.6910  104.8530  138.5730 C.3    19  MOL19      -0.0515
  11726  C67       97.3490  106.2800  138.1690 C.3    19  MOL19      -0.0429
  11727  C67       98.6310  107.2570  138.2540 C.3    19  MOL19       0.0450
  11728  C67      100.1320  107.5710  138.7250 C.2    19  MOL19       0.3074
  11729  O67      100.4110  108.2780  139.8700 O.3    19  MOL19      -0.4582
  11730  O68      100.9990  107.2510  137.9820 O.2    19  MOL19      -0.2508
  11731  C68      102.3690   97.3010  145.9190 C.3    19  MOL19       0.0162
  11732  C68       94.6770  114.9600  144.6690 C.2    19  MOL19       0.3344
  11733  C68       93.3930  115.7120  144.3090 C.2    19  MOL19       0.0264
  11734  C68       92.1710  115.1900  144.4920 C.2    19  MOL19      -0.0890
  11735  C68       93.3680  117.0630  143.6460 C.3    19  MOL19      -0.0335
  11736  O68       95.7360  115.5110  144.5100 O.2    19  MOL19      -0.2453
  11737  O68       94.6170  113.6780  145.1560 O.3    19  MOL19      -0.4577
  11738  C68       95.4630  112.4600  145.3230 C.3    19  MOL19       0.1293
  11739  C68       95.4270  111.0230  144.5980 C.3    19  MOL19       0.1341
  11740  C69       96.3440  110.2830  145.6160 C.3    19  MOL19      -0.0244
  11741  C69       90.6900  103.6900  145.5950 C.3    19  MOL19       0.0162
  11742  C69       89.4200  102.9190  145.2400 C.3    19  MOL19      -0.0313
  11743  C69       88.3710  103.9820  145.0340 C.3    19  MOL19      -0.0056
  11744  S69       87.5650  103.9690  143.4510 S.3    19  MOL19      -0.1641
  11745  C69       90.4170  105.0960  146.4720 C.3    19  MOL19      -0.0403
  11746  C69       90.6470  106.7610  146.2440 C.3    19  MOL19      -0.0515
  11747  C69       91.0110  108.2660  145.5440 C.3    19  MOL19      -0.0429
  11748  C69       91.5920  109.4710  144.4630 C.3    19  MOL19       0.0450
  11749  C69       92.8420  109.9730  143.4130 C.2    19  MOL19       0.3074
  11750  O70       94.2010  110.4340  143.7750 O.3    19  MOL19      -0.4582
  11751  O70       92.6250  110.0090  142.2490 O.2    19  MOL19      -0.2508
  11752  C70       86.8710  105.6650  143.3110 C.3    19  MOL19      -0.0181
  11753  S70       92.1480  102.5660  145.8560 S.3    19  MOL19      -0.0897
  11754  C70      109.7910  104.2780  141.0620 C.2    19  MOL19       0.3344
  11755  C70      110.5860  103.6580  140.0190 C.2    19  MOL19       0.0264
  11756  C70      109.9490  103.1670  138.9370 C.2    19  MOL19      -0.0890
  11757  C70      112.0640  103.7080  140.1730 C.3    19  MOL19      -0.0335
  11758  O70      110.2470  104.6780  142.1090 O.2    19  MOL19      -0.2453
  11759  O70      108.4810  104.4620  140.8180 O.3    19  MOL19      -0.4577
  11760  C71      107.9790  105.7700  140.9680 C.3    19  MOL19       0.1293
  11761  C71      107.7340  106.2010  142.3700 C.3    19  MOL19       0.1341
  11762  C71      107.0600  107.5660  142.3660 C.3    19  MOL19      -0.0244
  11763  S71      100.6120  102.3150  147.8050 S.3    19  MOL19      -0.0897
  11764  C71      101.4890  102.6700  146.1030 C.3    19  MOL19       0.0162
  11765  C71      101.3980  102.1310  144.5680 C.3    19  MOL19      -0.0305
  11766  C71      100.5350  101.6390  143.2820 C.3    19  MOL19       0.0050
  11767  S71       99.1180  101.4810  142.0890 S.3    19  MOL19      -0.0928
  11768  C71      101.9180  104.1050  146.3830 C.3    19  MOL19      -0.0403
  11769  C71      103.0910  104.7350  145.6040 C.3    19  MOL19      -0.0515
  11770  C72      104.6060  104.9730  145.8590 C.3    19  MOL19      -0.0429
  11771  C72      105.8280  104.5830  144.9760 C.3    19  MOL19       0.0450
  11772  C72      105.9830  104.9370  143.5090 C.2    19  MOL19       0.3074
  11773  O72      107.2820  105.2480  143.3430 O.3    19  MOL19      -0.4582
  11774  O72      105.1500  105.0230  142.6690 O.2    19  MOL19      -0.2508
  11775  S72       97.5300  101.3870  140.8880 S.3    19  MOL19      -0.0897
  11776  C72       97.2640  129.3600  144.5360 C.3    19  MOL19      -0.0559
  11777  C72       97.1890  127.9460  144.0180 C.3    19  MOL19      -0.0533
  11778  C72       95.9940  126.9920  144.1240 C.3    19  MOL19      -0.0531
  11779  C72       96.4940  125.6750  143.5180 C.3    19  MOL19      -0.0531
  11780  C73       95.6890  124.6310  142.7430 C.3    19  MOL19      -0.0531
  11781  C73       96.6420  123.8720  141.7760 C.3    19  MOL19      -0.0531
  11782  C73       96.6710  122.3830  142.0800 C.3    19  MOL19      -0.0531
  11783  C73       97.9820  121.6400  142.3240 C.3    19  MOL19      -0.0530
  11784  C73       97.5410  120.2130  142.5960 C.3    19  MOL19      -0.0500
  11785  C73       98.1250  119.2340  143.5790 C.3    19  MOL19      -0.0185
  11786  C73       97.4760  117.9230  143.3010 C.3    19  MOL19       0.0925
  11787  C73       98.6360  129.9260  144.1360 C.3    19  MOL19      -0.0653
  11788  C73       99.0300  115.2000  145.0750 C.3    19  MOL19       0.0537
  11789  C73       98.2960  116.5110  145.0120 C.2    19  MOL19       0.3099
  11790  O74       98.3210  116.8720  143.7160 O.3    19  MOL19      -0.4644
  11791  O74       97.6880  117.1670  145.8230 O.2    19  MOL19      -0.2505
  11792  C74       99.8050  114.6790  146.2990 C.3    19  MOL19      -0.0523
  11793  C74       99.7840  115.0320  143.7150 C.3    19  MOL19      -0.0394
  11794  C74      100.2990  113.3080  141.2730 C.3    19  MOL19      -0.0497
  11795  O74       98.0910   77.9750  147.4040 O.2    19  MOL19      -0.2510
  11796  O74       99.0730   78.6760  149.3130 O.3    19  MOL19      -0.4806
  11797  C74       99.0360   78.4220  147.9770 C.2    19  MOL19       0.3047
  11798  C74      100.3190   78.9110  147.3510 C.3    19  MOL19       0.0448
  11799  C74      100.9130   78.1680  146.1350 C.3    19  MOL19      -0.0430
  11800  C75      101.1250   79.2050  145.0570 C.3    19  MOL19      -0.0515
  11801  C75      102.1280   79.0540  143.9260 C.3    19  MOL19      -0.0403
  11802  S75      103.2010   83.9730  143.4840 S.3    19  MOL19      -0.0928
  11803  C75      102.0130   82.7490  143.0000 C.3    19  MOL19       0.0050
  11804  C75      102.0380   81.5440  143.8740 C.3    19  MOL19      -0.0305
  11805  C75       95.5930   93.3410  144.5700 C.2    19  MOL19       0.3129
  11806  C75       94.2710   92.6580  144.9660 C.3    19  MOL19       0.0622
  11807  C75       94.5980   91.2170  145.2940 C.3    19  MOL19      -0.0370
  11808  C75       93.9860   93.2360  146.3510 C.3    19  MOL19      -0.0497
  11809  O75       95.9700   94.2790  145.2120 O.2    19  MOL19      -0.2502
  11810  O76       96.3630   92.7420  143.5670 O.3    19  MOL19      -0.4605
  11811  C76       95.8990   92.5550  142.2170 C.3    19  MOL19       0.1290
  11812  C76       96.8560   92.2670  141.0540 C.3    19  MOL19       0.1341
  11813  C76       98.1410   92.9370  140.5830 C.3    19  MOL19      -0.0244
  11814  C76      102.5930   90.7880  142.5690 C.3    19  MOL19       0.0162
  11815  C76      103.5420   92.1200  142.1500 C.3    19  MOL19      -0.0305
  11816  C76      104.5060   93.4650  142.0250 C.3    19  MOL19       0.0050
  11817  S76      105.2800   94.8270  143.0100 S.3    19  MOL19      -0.0928
  11818  C76      101.1700   90.8510  142.0270 C.3    19  MOL19      -0.0403
  11819  C76      100.0860   90.0820  142.8840 C.3    19  MOL19      -0.0515
  11820  C77       98.9310   89.1760  142.3410 C.3    19  MOL19      -0.0429
  11821  C77       98.4040   89.0570  140.8970 C.3    19  MOL19       0.0450
  11822  C77       97.5800   90.1030  140.3290 C.2    19  MOL19       0.3074
  11823  O77       97.3750   90.9700  141.3270 O.3    19  MOL19      -0.4582
  11824  O77       97.1680   90.2060  139.1960 O.2    19  MOL19      -0.2508
  11825  S77      104.1740   80.3970  142.6250 S.3    19  MOL19      -0.0897
  11826  C77      102.4070   80.3060  143.0960 C.3    19  MOL19       0.0162
  11827  C77      112.6180   98.9410  144.5470 C.2    19  MOL19       0.3344
  11828  C77      113.7090   99.8730  144.6010 C.2    19  MOL19       0.0264
  11829  C77      113.7160  100.9310  143.7770 C.2    19  MOL19      -0.0890
  11830  C78      114.7560   99.5010  145.5690 C.3    19  MOL19      -0.0335
  11831  O78      112.7200   97.7980  144.9380 O.2    19  MOL19      -0.2453
  11832  O78      111.4600   99.4200  144.0590 O.3    19  MOL19      -0.4577
  11833  C78      110.5010   98.4640  143.7050 C.3    19  MOL19       0.1293
  11834  C78      109.2660   98.3590  144.4940 C.3    19  MOL19       0.1341
  11835  C78      108.3240   97.5350  143.4990 C.3    19  MOL19      -0.0244
  11836  C78      104.7900   94.8610  146.2920 C.3    19  MOL19       0.0162
  11837  C78      104.0360   93.9950  147.3370 C.3    19  MOL19      -0.0305
  11838  C78      103.8400   94.5000  148.7340 C.3    19  MOL19       0.0050
  11839  S78      102.2370   95.2290  148.8560 S.3    19  MOL19      -0.0928
  11840  C79      106.2830   94.6880  146.3630 C.3    19  MOL19      -0.0403
  11841  C79      106.7640   95.3560  147.7240 C.3    19  MOL19      -0.0515
  11842  C79      108.1890   95.8590  148.3550 C.3    19  MOL19      -0.0429
  11843  C79      109.2350   97.1440  148.2290 C.3    19  MOL19       0.0450
  11844  C79      110.0590   97.8110  147.0100 C.2    19  MOL19       0.3074
  11845  O79      109.2620   98.3000  145.9960 O.3    19  MOL19      -0.4582
  11846  O79      111.2560   97.7780  147.0100 O.2    19  MOL19      -0.2508
  11847  S79      102.8060   96.7840  147.6580 S.3    19  MOL19      -0.0897
  11848  S79      104.0890   95.2630  144.6030 S.3    19  MOL19      -0.0897
  11849  C79       98.8710   80.7460  143.3830 C.2    19  MOL19       0.3344
  11850  C80       99.1070   79.3620  142.9490 C.2    19  MOL19       0.0264
  11851  C80       99.7040   79.3150  141.7770 C.2    19  MOL19      -0.0890
  11852  C80       98.8710   78.0940  143.7290 C.3    19  MOL19      -0.0335
  11853  O80       98.5250   80.9860  144.5100 O.2    19  MOL19      -0.2453
  11854  O80       99.0250   81.8190  142.5260 O.3    19  MOL19      -0.4577
  11855  C80       98.2080   82.9050  142.9460 C.3    19  MOL19       0.1293
  11856  C80       98.8530   83.9880  143.6890 C.3    19  MOL19       0.1341
  11857  C80       97.9080   85.2080  143.6610 C.3    19  MOL19      -0.0244
  11858  S80      104.9600   82.9700  143.8030 S.3    19  MOL19      -0.0897
  11859  C80      105.6760   84.4030  144.6480 C.3    19  MOL19       0.0162
  11860  C81      105.8920   85.4280  143.4980 C.3    19  MOL19      -0.0305
  11861  C81      105.4200   86.8720  143.5350 C.3    19  MOL19       0.0050
  11862  S81      103.7690   87.0620  142.7260 S.3    19  MOL19      -0.0928
  11863  C81      104.7640   84.7570  145.8250 C.3    19  MOL19      -0.0403
  11864  C81      104.0630   83.6340  146.6360 C.3    19  MOL19      -0.0515
  11865  C81      102.5380   83.8070  147.0090 C.3    19  MOL19      -0.0429
  11866  C81      101.0080   83.6910  146.7150 C.3    19  MOL19       0.0450
  11867  C81      100.1920   84.3020  145.6040 C.2    19  MOL19       0.3074
  11868  O81       99.5160   83.4150  144.8480 O.3    19  MOL19      -0.4582
  11869  O81       99.9740   85.4710  145.5130 O.2    19  MOL19      -0.2508
  11870  S82      102.7020   88.8400  142.4150 S.3    19  MOL19      -0.0897
  11871  C82       81.4180   83.5090  147.0390 C.3    19  MOL19      -0.0559
  11872  C82       82.4960   84.2080  147.8180 C.3    19  MOL19      -0.0533
  11873  C82       83.8430   83.6670  147.3570 C.3    19  MOL19      -0.0531
  11874  C82       84.5360   84.7230  146.4970 C.3    19  MOL19      -0.0531
  11875  C82       85.8790   84.4070  145.7870 C.3    19  MOL19      -0.0531
  11876  C82       86.6590   85.6730  145.9690 C.3    19  MOL19      -0.0531
  11877  C82       88.1140   86.0580  145.8740 C.3    19  MOL19      -0.0531
  11878  C82       89.2240   85.7860  144.9070 C.3    19  MOL19      -0.0530
  11879  C82       90.3700   85.0550  145.5520 C.3    19  MOL19      -0.0500
  11880  C83       90.8810   85.6730  146.8560 C.3    19  MOL19      -0.0185
  11881  C83       90.6580   87.1620  147.0790 C.3    19  MOL19       0.0925
  11882  C83       80.0430   83.9890  147.3140 C.3    19  MOL19      -0.0653
  11883  C83       92.5670   89.8180  145.5360 C.3    19  MOL19       0.0537
  11884  C83       91.5240   89.2710  146.4490 C.2    19  MOL19       0.3099
  11885  O83       91.4330   87.9500  146.1900 O.3    19  MOL19      -0.4644
  11886  O83       90.8680   89.8650  147.2770 O.2    19  MOL19      -0.2505
  11887  C83       93.3020   88.8080  144.6530 C.3    19  MOL19      -0.0523
  11888  C83       93.6710   90.5160  146.2930 C.3    19  MOL19      -0.0394
  11889  C83       93.1760   92.9450  143.9420 C.3    19  MOL19      -0.0497
  11890  O84      125.9280   75.4670  142.5990 O.2    19  MOL19      -0.2510
  11891  O84      124.5250   76.1840  144.2020 O.3    19  MOL19      -0.4806
  11892  C84      124.8260   75.5320  143.0370 C.2    19  MOL19       0.3047
  11893  C84      123.5520   74.9740  142.4050 C.3    19  MOL19       0.0448
  11894  C84      123.7740   74.1130  141.1060 C.3    19  MOL19      -0.0430
  11895  C84      122.6860   73.4470  140.1010 C.3    19  MOL19      -0.0516
  11896  C84      121.5610   72.7850  139.1260 C.3    19  MOL19      -0.0411
  11897  S84      116.4460   73.2940  140.5670 S.3    19  MOL19      -0.0928
  11898  C84      117.3200   72.1960  139.3950 C.3    19  MOL19       0.0049
  11899  C84      118.6900   72.9190  139.3790 C.3    19  MOL19      -0.0313
  11900  C85      116.8640   85.4690  143.2570 C.2    19  MOL19       0.3129
  11901  C85      116.5720   86.4180  142.1230 C.3    19  MOL19       0.0622
  11902  C85      115.2090   87.1630  142.0640 C.3    19  MOL19      -0.0370
  11903  C85      117.8540   87.1230  141.8730 C.3    19  MOL19      -0.0497
  11904  O85      117.8350   85.4790  143.9730 O.2    19  MOL19      -0.2502
  11905  O85      115.9210   84.4840  143.2350 O.3    19  MOL19      -0.4605
  11906  C85      116.3960   83.2350  143.7030 C.3    19  MOL19       0.1290
  11907  C85      116.3420   82.1120  142.7470 C.3    19  MOL19       0.1341
  11908  C85      117.0710   81.0200  143.4980 C.3    19  MOL19      -0.0244
  11909  C85      111.8960   79.2830  145.1710 C.3    19  MOL19       0.0162
  11910  C86      111.3230   78.2970  146.1860 C.3    19  MOL19      -0.0305
  11911  C86      109.9040   77.9460  145.7900 C.3    19  MOL19       0.0050
  11912  S86      109.4520   76.2840  145.3540 S.3    19  MOL19      -0.0928
  11913  C86      112.4790   80.4520  145.8920 C.3    19  MOL19      -0.0403
  11914  C86      113.5260   81.2700  145.1560 C.3    19  MOL19      -0.0515
  11915  C86      112.9110   81.9540  143.9320 C.3    19  MOL19      -0.0429
  11916  C86      112.9330   81.1070  142.6580 C.3    19  MOL19       0.0450
  11917  C86      114.3420   80.6960  142.4410 C.2    19  MOL19       0.3074
  11918  O86      114.9570   81.8780  142.5810 O.3    19  MOL19      -0.4582
  11919  O86      114.8430   79.6270  142.2000 O.2    19  MOL19      -0.2508
  11920  S87      119.9230   71.1120  137.6070 S.3    19  MOL19      -0.1607
  11921  C87      120.0490   72.2410  139.0160 C.3    19  MOL19       0.0058
  11922  C87      118.7300   69.9120  138.1400 C.3    19  MOL19      -0.0178
  11923  C87      108.1830   87.2960  145.6250 C.2    19  MOL19       0.3344
  11924  C87      107.3050   87.1170  146.7860 C.2    19  MOL19       0.0264
  11925  C87      107.2510   85.9040  147.3500 C.2    19  MOL19      -0.0890
  11926  C87      106.4820   88.2810  147.2660 C.3    19  MOL19      -0.0335
  11927  O87      108.1890   88.3610  145.0490 O.2    19  MOL19      -0.2453
  11928  O87      108.9610   86.2600  145.1510 O.3    19  MOL19      -0.4577
  11929  C87      109.6410   86.5590  143.9220 C.3    19  MOL19       0.1293
  11930  C88      109.9860   85.3520  143.0720 C.3    19  MOL19       0.1341
  11931  C88      111.4340   84.9430  142.6490 C.3    19  MOL19      -0.0244
  11932  C88      107.1900   77.4480  143.8170 C.3    19  MOL19       0.0162
  11933  C88      105.8930   76.8670  143.1800 C.3    19  MOL19      -0.0305
  11934  C88      104.6310   77.5220  142.6580 C.3    19  MOL19       0.0050
  11935  S88      104.5770   78.8370  141.4150 S.3    19  MOL19      -0.0928
  11936  C88      107.4710   78.9420  143.5610 C.3    19  MOL19      -0.0403
  11937  C88      107.6870   79.9300  144.7010 C.3    19  MOL19      -0.0515
  11938  C88      108.7980   80.9070  144.3440 C.3    19  MOL19      -0.0429
  11939  C88      108.2780   82.0300  143.4850 C.3    19  MOL19       0.0450
  11940  C89      109.4280   82.9210  143.1160 C.2    19  MOL19       0.3074
  11941  O89      109.1530   84.2170  143.4600 O.3    19  MOL19      -0.4582
  11942  O89      110.4170   82.5050  142.5760 O.2    19  MOL19      -0.2508
  11943  S89      107.5020   76.8020  145.4890 S.3    19  MOL19      -0.0897
  11944  C89      124.4380   79.8960  142.5700 C.2    19  MOL19       0.3344
  11945  C89      125.3940   79.3930  141.5940 C.2    19  MOL19       0.0264
  11946  C89      125.2550   78.0940  141.3640 C.2    19  MOL19      -0.0890
  11947  C89      126.4080   80.2410  140.9060 C.3    19  MOL19      -0.0335
  11948  O89      124.5140   81.0110  143.0380 O.2    19  MOL19      -0.2453
  11949  O89      123.3990   79.0560  142.9260 O.3    19  MOL19      -0.4577
  11950  C90      122.1030   79.6540  142.9620 C.3    19  MOL19       0.1293
  11951  C90      121.3240   79.0180  144.0570 C.3    19  MOL19       0.1341
  11952  C90      120.4580   79.9200  144.9790 C.3    19  MOL19      -0.0244
  11953  S90      114.6610   72.6870  141.4070 S.3    19  MOL19      -0.0897
  11954  C90      114.4520   74.3890  142.0070 C.3    19  MOL19       0.0162
  11955  C90      113.0590   74.9420  142.3000 C.3    19  MOL19      -0.0305
  11956  C90      113.2540   76.4230  142.5370 C.3    19  MOL19       0.0050
  11957  S90      111.8230   77.2900  143.1690 S.3    19  MOL19      -0.0928
  11958  C90      115.4190   74.6650  143.1470 C.3    19  MOL19      -0.0403
  11959  C90      116.4830   75.6670  142.6770 C.3    19  MOL19      -0.0515
  11960  C91      117.1630   76.5740  143.6860 C.3    19  MOL19      -0.0429
  11961  C91      118.6800   76.7010  143.5550 C.3    19  MOL19       0.0450
  11962  C91      119.3920   78.0000  143.2920 C.2    19  MOL19       0.3074
  11963  O91      120.6510   77.7960  143.7420 O.3    19  MOL19      -0.4582
  11964  O91      119.0380   79.0450  142.8230 O.2    19  MOL19      -0.2508
  11965  S91      113.1070   78.4910  144.1630 S.3    19  MOL19      -0.0897
  11966  C91      119.6810  100.5870  139.9160 C.3    19  MOL19      -0.0559
  11967  C91      118.2850  100.2090  139.4670 C.3    19  MOL19      -0.0533
  11968  C91      118.1590   98.7340  139.8600 C.3    19  MOL19      -0.0531
  11969  C91      117.0970   98.1000  139.0480 C.3    19  MOL19      -0.0531
  11970  C92      116.5570   96.7570  139.4190 C.3    19  MOL19      -0.0531
  11971  C92      115.3330   96.6010  138.5170 C.3    19  MOL19      -0.0531
  11972  C92      114.2020   95.6870  138.9630 C.3    19  MOL19      -0.0531
  11973  C92      114.3970   94.7070  140.1240 C.3    19  MOL19      -0.0530
  11974  C92      113.1720   94.5180  140.9700 C.3    19  MOL19      -0.0500
  11975  C92      112.9030   93.0630  141.1820 C.3    19  MOL19      -0.0185
  11976  C92      112.3530   92.5760  142.4940 C.3    19  MOL19       0.0925
  11977  C92      120.2190  101.8900  140.4410 C.3    19  MOL19      -0.0653
  11978  C92      114.8080   89.9640  143.0760 C.3    19  MOL19       0.0537
  11979  C92      113.3940   90.4300  143.1740 C.2    19  MOL19       0.3099
  11980  O93      113.4140   91.7420  142.9290 O.3    19  MOL19      -0.4644
  11981  O93      112.4290   89.7660  143.4400 O.2    19  MOL19      -0.2505
  11982  C93      115.7530   91.1840  142.9090 C.3    19  MOL19      -0.0523
  11983  C93      114.8820   88.6940  142.1020 C.3    19  MOL19      -0.0394
  11984  C93      116.4090   85.4480  140.9780 C.3    19  MOL19      -0.0497
  11985 5H93      107.2240  102.7580  143.1710 H      19  MOL19       0.2951
  11986 6H93      107.3700  100.1960  142.8410 H      19  MOL19       0.0377
  11987 7H93      106.2710  101.4470  143.2860 H      19  MOL19       0.0377
  11988 8H93      106.1180   99.1730  145.1150 H      19  MOL19       0.0270
  11989 9H93      106.1230   98.5480  143.5280 H      19  MOL19       0.0270
  11990 0H94      104.1340   98.8060  142.9870 H      19  MOL19       0.0266
  11991 1H94      103.5410  100.0970  143.8240 H      19  MOL19       0.0266
  11992 2H94      104.5330   97.4690  145.0570 H      19  MOL19       0.0276
  11993 3H94      103.0990   97.5560  144.0060 H      19  MOL19       0.0276
  11994 4H94       99.3700   98.2790  147.3890 H      19  MOL19       0.0385
  11995 5H94      100.8610   98.0080  148.1220 H      19  MOL19       0.0385
  11996 6H94      101.0180   98.4360  144.9470 H      19  MOL19       0.0284
  11997 7H94      100.3060   97.1650  145.8190 H      19  MOL19       0.0284
  11998 8H94      101.6020  113.9480  144.3010 H      19  MOL19       0.0276
  11999 9H94      100.0980  113.1470  144.2070 H      19  MOL19       0.0276
  12000 0H95      102.9950  114.7000  141.6940 H      19  MOL19       0.0240
  12001 1H95      102.0510  115.4750  142.8320 H      19  MOL19       0.0240
  12002 2H95      101.4310  115.2910  141.2450 H      19  MOL19       0.0240
  12003 3H95      103.0650  110.2460  139.7870 H      19  MOL19       0.0735
  12004 4H95      103.3250  109.7460  141.4210 H      19  MOL19       0.0735
  12005 5H95      102.4670  108.1090  140.1640 H      19  MOL19       0.0765
  12006 6H95      101.0800  107.2830  141.7070 H      19  MOL19       0.0266
  12007 7H95      100.9360  108.6850  142.6430 H      19  MOL19       0.0266
  12008 8H95      102.5660  108.1950  142.3240 H      19  MOL19       0.0266
  12009 9H95       95.5380  101.9470  140.4290 H      19  MOL19       0.0421
  12010 0H96       96.6940  102.2740  143.0860 H      19  MOL19       0.0284
  12011 1H96       95.5840  101.2300  142.3050 H      19  MOL19       0.0284
  12012 2H96       95.2140  103.2910  144.4920 H      19  MOL19       0.0385
  12013 3H96       95.1490  101.6300  144.3280 H      19  MOL19       0.0385
  12014 4H96       97.4500  103.2650  139.5460 H      19  MOL19       0.0276
  12015 5H96       95.9870  102.9400  138.8740 H      19  MOL19       0.0276
  12016 6H96       95.6730  105.1330  138.2380 H      19  MOL19       0.0266
  12017 7H96       97.0660  104.1970  137.7690 H      19  MOL19       0.0266
  12018 8H96       96.5190  107.0030  138.3250 H      19  MOL19       0.0270
  12019 9H96       97.3050  106.1400  137.0730 H      19  MOL19       0.0270
  12020 0H97       98.2190  108.1640  137.7840 H      19  MOL19       0.0377
  12021 1H97       99.0760  106.7590  137.3770 H      19  MOL19       0.0377
  12022 2H97      102.1170   96.4250  145.3060 H      19  MOL19       0.0421
  12023 3H97       91.2810  115.7010  144.1300 H      19  MOL19       0.0540
  12024 4H97       91.9910  114.1860  144.8590 H      19  MOL19       0.0540
  12025 5H97       92.7390  117.7610  144.2080 H      19  MOL19       0.0280
  12026 6H97       92.8520  116.9930  142.6880 H      19  MOL19       0.0280
  12027 7H97       94.3730  117.4440  143.4550 H      19  MOL19       0.0280
  12028 8H97       96.5100  112.7620  145.3570 H      19  MOL19       0.0735
  12029 9H97       95.1590  112.1830  146.3390 H      19  MOL19       0.0735
  12030 0H98       96.0160  110.9960  143.7220 H      19  MOL19       0.0765
  12031 1H98       97.1970  110.9660  145.7810 H      19  MOL19       0.0266
  12032 2H98       96.8320  109.3610  145.2970 H      19  MOL19       0.0266
  12033 3H98       95.9220  110.1040  146.6130 H      19  MOL19       0.0266
  12034 4H98       90.8730  103.8130  144.5430 H      19  MOL19       0.0421
  12035 5H98       89.1130  102.2490  146.0230 H      19  MOL19       0.0284
  12036 6H98       89.5840  102.3260  144.3230 H      19  MOL19       0.0284
  12037 7H98       88.8370  104.9660  144.9610 H      19  MOL19       0.0377
  12038 8H98       87.7530  103.9080  145.9280 H      19  MOL19       0.0377
  12039 9H98       89.3540  105.0700  146.7690 H      19  MOL19       0.0276
  12040 0H99       90.8760  105.0520  147.4610 H      19  MOL19       0.0276
  12041 1H99       91.5850  106.7610  146.8060 H      19  MOL19       0.0266
  12042 2H99       89.9420  107.1620  147.0030 H      19  MOL19       0.0266
  12043 3H99       91.5020  108.6230  146.4780 H      19  MOL19       0.0270
  12044 4H99       90.1000  108.6980  145.8590 H      19  MOL19       0.0270
  12045 5H99       91.1790  110.3220  144.9530 H      19  MOL19       0.0377
  12046 6H99       91.0110  109.3720  143.5710 H      19  MOL19       0.0377
  12047 7H99       85.7890  105.7690  143.4660 H      19  MOL19       0.0340
  12048 8H99       87.0060  106.0510  142.3080 H      19  MOL19       0.0340
  12049 9H99       87.3960  106.3590  143.9590 H      19  MOL19       0.0340
  12050  H10      110.4770  102.6880  138.1210 H      19  MOL19       0.0540
  12051  H10      108.8770  103.2610  138.8040 H      19  MOL19       0.0540
  12052  H10      112.3780  102.9940  140.9330 H      19  MOL19       0.0280
  12053  H10      112.4490  104.6930  140.4610 H      19  MOL19       0.0280
  12054  H10      112.5210  103.4730  139.2080 H      19  MOL19       0.0280
  12055  H10      108.6820  106.4990  140.5550 H      19  MOL19       0.0735
  12056  H10      107.1290  105.8280  140.2870 H      19  MOL19       0.0735
  12057  H10      108.7380  106.3750  142.7500 H      19  MOL19       0.0765
  12058  H10      106.7440  107.9260  143.3440 H      19  MOL19       0.0266
  12059  H10      106.1900  107.6130  141.7050 H      19  MOL19       0.0266
  12060  H10      107.7970  108.2740  141.9940 H      19  MOL19       0.0266
  12061  H10      102.5120  102.4020  146.1280 H      19  MOL19       0.0421
  12062  H10      101.9490  102.9610  144.1750 H      19  MOL19       0.0284
  12063  H10      102.1040  101.2900  144.5570 H      19  MOL19       0.0284
  12064  H10      100.6680  100.5500  143.2520 H      19  MOL19       0.0385
  12065  H10      101.2180  101.6880  142.4230 H      19  MOL19       0.0385
  12066  H10      102.2280  104.0290  147.3860 H      19  MOL19       0.0276
  12067  H10      101.0680  104.7850  146.5030 H      19  MOL19       0.0276
  12068  H10      102.7130  105.7370  145.5980 H      19  MOL19       0.0266
  12069  H10      103.0450  104.3500  144.6220 H      19  MOL19       0.0266
  12070  H10      104.9320  104.7310  146.8660 H      19  MOL19       0.0270
  12071  H10      104.6680  106.0600  145.8680 H      19  MOL19       0.0270
  12072  H10      106.2810  103.6080  145.1040 H      19  MOL19       0.0377
  12073  H10      106.6450  105.1270  145.4010 H      19  MOL19       0.0377
  12074  H10       97.1860  129.3330  145.6150 H      19  MOL19       0.0263
  12075  H10       96.4290  129.9820  144.2220 H      19  MOL19       0.0263
  12076  H10       97.9970  127.4800  144.5570 H      19  MOL19       0.0265
  12077  H10       97.4940  127.9770  142.9650 H      19  MOL19       0.0265
  12078  H10       95.1360  127.3890  143.5980 H      19  MOL19       0.0265
  12079  H10       95.6730  126.8390  145.1650 H      19  MOL19       0.0265
  12080  H10       96.9420  125.1480  144.3560 H      19  MOL19       0.0265
  12081  H10       97.3130  125.9430  142.8440 H      19  MOL19       0.0265
  12082  H10       94.8830  125.0440  142.1470 H      19  MOL19       0.0265
  12083  H10       95.1760  123.9500  143.4420 H      19  MOL19       0.0265
  12084  H10       97.6560  124.2960  141.7690 H      19  MOL19       0.0265
  12085  H10       96.2900  124.0010  140.7440 H      19  MOL19       0.0265
  12086  H10       96.1410  121.8650  141.2710 H      19  MOL19       0.0265
  12087  H10       96.0770  122.2200  142.9930 H      19  MOL19       0.0265
  12088  H10       98.5140  122.0130  143.1890 H      19  MOL19       0.0265
  12089  H10       98.6770  121.7190  141.4770 H      19  MOL19       0.0265
  12090  H10       97.5010  119.7020  141.6430 H      19  MOL19       0.0266
  12091  H10       96.5060  120.2710  142.9310 H      19  MOL19       0.0266
  12092  H10       97.8880  119.5110  144.6000 H      19  MOL19       0.0298
  12093  H10       99.1930  119.0230  143.5070 H      19  MOL19       0.0298
  12094  H10       97.4390  117.8300  142.2250 H      19  MOL19       0.0697
  12095  H10       96.4610  117.8150  143.6960 H      19  MOL19       0.0697
  12096  H10       98.8410  129.7900  143.0710 H      19  MOL19       0.0230
  12097  H10       99.4400  129.4340  144.6890 H      19  MOL19       0.0230
  12098  H10       98.7580  130.9940  144.3240 H      19  MOL19       0.0230
  12099  H10       98.1420  114.5580  145.0890 H      19  MOL19       0.0411
  12100  H10      100.1440  115.4460  146.9790 H      19  MOL19       0.0238
  12101  H10      100.6880  114.1000  146.0250 H      19  MOL19       0.0238
  12102  H10       99.2260  113.9450  146.8650 H      19  MOL19       0.0238
  12103  H10      100.2950  115.9600  143.4940 H      19  MOL19       0.0273
  12104  H10       99.0210  114.9660  142.9390 H      19  MOL19       0.0273
  12105  H10       99.4370  113.9180  141.5270 H      19  MOL19       0.0240
  12106  H10       99.9490  112.3020  141.1470 H      19  MOL19       0.0240
  12107  H10      100.6990  113.6560  140.3400 H      19  MOL19       0.0240
  12108  H10       99.9390   79.0130  149.5510 H      19  MOL19       0.2951
  12109  H10      101.0770   78.9810  148.1250 H      19  MOL19       0.0377
  12110  H10      100.0140   79.9260  147.0670 H      19  MOL19       0.0377
  12111  H10      100.2910   77.3370  145.7770 H      19  MOL19       0.0270
  12112  H10      101.8740   77.7400  146.4230 H      19  MOL19       0.0270
  12113  H10      101.5080   80.0900  145.5160 H      19  MOL19       0.0266
  12114  H10      100.1440   79.5530  144.8350 H      19  MOL19       0.0266
  12115  H10      102.0170   78.2020  143.2670 H      19  MOL19       0.0276
  12116  H10      103.0390   78.9450  144.4930 H      19  MOL19       0.0276
  12117  H10      101.9770   82.4810  141.9450 H      19  MOL19       0.0385
  12118  H10      101.0890   83.2630  143.2180 H      19  MOL19       0.0385
  12119  H10      101.0230   81.4650  144.2830 H      19  MOL19       0.0284
  12120  H10      102.7080   81.6640  144.7260 H      19  MOL19       0.0284
  12121  H10       95.6050   91.2000  145.7240 H      19  MOL19       0.0276
  12122  H10       94.6280   90.6610  144.3740 H      19  MOL19       0.0276
  12123  H10       94.7430   92.8000  147.0140 H      19  MOL19       0.0240
  12124  H10       93.0180   93.0010  146.8040 H      19  MOL19       0.0240
  12125  H10       94.0970   94.3200  146.3540 H      19  MOL19       0.0240
  12126  H10       95.1880   93.3390  141.9470 H      19  MOL19       0.0735
  12127  H10       95.3180   91.6420  142.2140 H      19  MOL19       0.0735
  12128  H10       96.1970   92.2490  140.1690 H      19  MOL19       0.0765
  12129  H10       98.3630   92.5120  139.5920 H      19  MOL19       0.0266
  12130  H10       98.9680   92.6430  141.2370 H      19  MOL19       0.0266
  12131  H10       98.1720   94.0110  140.4730 H      19  MOL19       0.0266
  12132  H10      102.5050   90.7290  143.6260 H      19  MOL19       0.0421
  12133  H10      103.4580   92.2070  141.0890 H      19  MOL19       0.0284
  12134  H10      104.4110   91.7360  142.6480 H      19  MOL19       0.0284
  12135  H10      104.2690   93.9220  141.0650 H      19  MOL19       0.0385
  12136  H10      105.4340   92.9810  141.6680 H      19  MOL19       0.0385
  12137  H10      101.2150   90.4120  141.0530 H      19  MOL19       0.0276
  12138  H10      100.9710   91.9010  141.8110 H      19  MOL19       0.0276
  12139  H10       99.6070   90.6760  143.6700 H      19  MOL19       0.0266
  12140  H10      100.6050   89.3920  143.5400 H      19  MOL19       0.0266
  12141  H10       98.1110   89.3200  143.0530 H      19  MOL19       0.0270
  12142  H10       99.2270   88.1540  142.5930 H      19  MOL19       0.0270
  12143  H10       97.8870   88.0970  140.8100 H      19  MOL19       0.0377
  12144  H10       99.2220   89.0350  140.1890 H      19  MOL19       0.0377
  12145  H10      101.8200   80.3040  142.1840 H      19  MOL19       0.0421
  12146  H10      113.0140  101.0090  142.9590 H      19  MOL19       0.0540
  12147  H10      114.4240  101.7460  143.7570 H      19  MOL19       0.0540
  12148  H10      114.9470  100.2330  146.3660 H      19  MOL19       0.0280
  12149  H10      115.5870   99.3800  144.9230 H      19  MOL19       0.0280
  12150  H11      114.5530   98.5240  146.0230 H      19  MOL19       0.0280
  12151  H11      110.1730   98.7210  142.6850 H      19  MOL19       0.0735
  12152  H11      110.9740   97.4920  143.6470 H      19  MOL19       0.0735
  12153  H11      108.7450   99.2810  144.3660 H      19  MOL19       0.0765
  12154  H11      108.0210   98.2570  142.7310 H      19  MOL19       0.0266
  12155  H11      107.4030   97.0610  143.8470 H      19  MOL19       0.0266
  12156  H11      108.7930   96.7430  142.9080 H      19  MOL19       0.0266
  12157  H11      104.6830   95.8440  146.6600 H      19  MOL19       0.0421
  12158  H11      104.6360   93.1040  147.4340 H      19  MOL19       0.0284
  12159  H11      103.0490   93.6630  147.0490 H      19  MOL19       0.0284
  12160  H11      104.5180   95.2980  148.9770 H      19  MOL19       0.0385
  12161  H11      103.8640   93.6620  149.4440 H      19  MOL19       0.0385
  12162  H11      106.6510   94.9840  145.3700 H      19  MOL19       0.0276
  12163  H11      106.6440   93.6730  146.3740 H      19  MOL19       0.0276
  12164  H11      106.4440   94.5480  148.3370 H      19  MOL19       0.0266
  12165  H11      106.0050   96.0950  147.9830 H      19  MOL19       0.0266
  12166  H11      108.8170   94.9720  148.2540 H      19  MOL19       0.0270
  12167  H11      108.0320   95.8820  149.4340 H      19  MOL19       0.0270
  12168  H11      110.0590   96.7470  148.8310 H      19  MOL19       0.0377
  12169  H11      108.8480   97.9690  148.8480 H      19  MOL19       0.0377
  12170  H11      100.0320   78.3890  141.3420 H      19  MOL19       0.0540
  12171  H11       99.9850   80.2630  141.3360 H      19  MOL19       0.0540
  12172  H11       98.6470   78.2370  144.7930 H      19  MOL19       0.0280
  12173  H11       99.7850   77.4940  143.6860 H      19  MOL19       0.0280
  12174  H11       98.0710   77.5240  143.2720 H      19  MOL19       0.0280
  12175  H11       97.7490   83.3270  142.0850 H      19  MOL19       0.0735
  12176  H11       97.3130   82.5590  143.4690 H      19  MOL19       0.0735
  12177  H11       99.6450   84.3900  143.0990 H      19  MOL19       0.0765
  12178  H11       98.0980   85.7610  142.7270 H      19  MOL19       0.0266
  12179  H11       98.1300   85.9610  144.4140 H      19  MOL19       0.0266
  12180  H11       96.8400   84.9550  143.6260 H      19  MOL19       0.0266
  12181  H11      106.6780   84.1230  144.9920 H      19  MOL19       0.0421
  12182  H11      106.9840   85.4720  143.3450 H      19  MOL19       0.0284
  12183  H11      105.5300   85.0570  142.5310 H      19  MOL19       0.0284
  12184  H11      106.2020   87.3130  142.9030 H      19  MOL19       0.0385
  12185  H11      105.4850   87.2610  144.5560 H      19  MOL19       0.0385
  12186  H11      103.9810   85.2110  145.2860 H      19  MOL19       0.0276
  12187  H11      105.1380   85.5630  146.4610 H      19  MOL19       0.0276
  12188  H11      104.5020   83.6740  147.6510 H      19  MOL19       0.0266
  12189  H11      104.3790   82.6720  146.2300 H      19  MOL19       0.0266
  12190  H11      102.5390   84.8820  147.0270 H      19  MOL19       0.0270
  12191  H11      102.5100   83.5650  148.0780 H      19  MOL19       0.0270
  12192  H11      100.7170   84.3860  147.5090 H      19  MOL19       0.0377
  12193  H11      100.4490   82.8100  147.0370 H      19  MOL19       0.0377
  12194  H11       81.4690   82.4230  147.1570 H      19  MOL19       0.0263
  12195  H11       81.5440   83.7420  145.9940 H      19  MOL19       0.0263
  12196  H11       82.3420   84.0820  148.8980 H      19  MOL19       0.0265
  12197  H11       82.4080   85.2880  147.6070 H      19  MOL19       0.0265
  12198  H11       83.6590   82.7650  146.7990 H      19  MOL19       0.0265
  12199  H11       84.4520   83.2570  148.1670 H      19  MOL19       0.0265
  12200  H11       84.6440   85.6000  147.1430 H      19  MOL19       0.0265
  12201  H11       83.8100   85.0930  145.7710 H      19  MOL19       0.0265
  12202  H11       85.8090   84.2680  144.7250 H      19  MOL19       0.0265
  12203  H11       86.3000   83.4440  146.0730 H      19  MOL19       0.0265
  12204  H11       86.5300   85.8990  147.0180 H      19  MOL19       0.0265
  12205  H11       86.0660   86.4280  145.4360 H      19  MOL19       0.0265
  12206  H11       88.5750   85.6980  146.7820 H      19  MOL19       0.0265
  12207  H11       88.0310   87.1370  146.0410 H      19  MOL19       0.0265
  12208  H11       89.7420   86.7050  144.7850 H      19  MOL19       0.0265
  12209  H11       88.9710   85.4920  143.9020 H      19  MOL19       0.0265
  12210  H11       91.1650   85.0510  144.8170 H      19  MOL19       0.0266
  12211  H11       90.0300   84.0580  145.7690 H      19  MOL19       0.0266
  12212  H11       91.9560   85.4900  146.9870 H      19  MOL19       0.0298
  12213  H11       90.4140   85.0990  147.6650 H      19  MOL19       0.0298
  12214  H11       90.9830   87.3390  148.0840 H      19  MOL19       0.0697
  12215  H11       89.6310   87.5280  147.0760 H      19  MOL19       0.0697
  12216  H11       79.3700   83.2780  146.8330 H      19  MOL19       0.0230
  12217  H11       79.9130   84.9750  146.8530 H      19  MOL19       0.0230
  12218  H11       79.8570   84.0460  148.3870 H      19  MOL19       0.0230
  12219  H11       92.0250   90.5440  144.9220 H      19  MOL19       0.0411
  12220  H11       94.3510   88.6960  144.9630 H      19  MOL19       0.0238
  12221  H11       93.3530   89.1470  143.6350 H      19  MOL19       0.0238
  12222  H11       92.8250   87.8390  144.5950 H      19  MOL19       0.0238
  12223  H11       94.2550   89.7520  146.8380 H      19  MOL19       0.0273
  12224  H11       93.2790   91.1780  147.0690 H      19  MOL19       0.0273
  12225  H11       92.3400   92.2680  144.1140 H      19  MOL19       0.0240
  12226  H11       93.5030   92.8690  142.9030 H      19  MOL19       0.0240
  12227  H11       92.7620   93.9510  144.0220 H      19  MOL19       0.0240
  12228  H11      123.5810   76.2230  144.3720 H      19  MOL19       0.2951
  12229  H11      122.9150   75.8670  142.2810 H      19  MOL19       0.0377
  12230  H11      123.0660   74.3570  143.1680 H      19  MOL19       0.0377
  12231  H11      124.4300   73.3270  141.4800 H      19  MOL19       0.0270
  12232  H11      124.4380   74.5770  140.4080 H      19  MOL19       0.0270
  12233  H11      122.1650   74.3840  140.0090 H      19  MOL19       0.0266
  12234  H11      122.4600   72.7630  140.8780 H      19  MOL19       0.0266
  12235  H11      121.9470   71.8010  139.2470 H      19  MOL19       0.0276
  12236  H11      121.8720   73.1750  138.1590 H      19  MOL19       0.0276
  12237  H11      116.8380   72.1600  138.4140 H      19  MOL19       0.0385
  12238  H11      117.3990   71.1800  139.7810 H      19  MOL19       0.0385
  12239  H11      118.8550   73.0260  140.4440 H      19  MOL19       0.0284
  12240  H11      118.5540   73.9450  139.0150 H      19  MOL19       0.0284
  12241  H11      114.4980   86.5160  142.6020 H      19  MOL19       0.0276
  12242  H11      114.8590   87.0140  141.0190 H      19  MOL19       0.0276
  12243  H11      118.2740   87.4620  142.8010 H      19  MOL19       0.0240
  12244  H11      117.7400   87.9720  141.2230 H      19  MOL19       0.0240
  12245  H11      118.5430   86.3650  141.4920 H      19  MOL19       0.0240
  12246  H11      117.4060   83.3210  144.1170 H      19  MOL19       0.0735
  12247  H11      115.7410   82.8850  144.5080 H      19  MOL19       0.0735
  12248  H11      116.7570   82.3760  141.7720 H      19  MOL19       0.0765
  12249  H11      116.8450   80.0070  143.1670 H      19  MOL19       0.0266
  12250  H12      116.7780   81.0940  144.5490 H      19  MOL19       0.0266
  12251  H12      118.1500   81.1720  143.4530 H      19  MOL19       0.0266
  12252  H12      111.1320   79.6980  144.5110 H      19  MOL19       0.0421
  12253  H12      111.2490   78.8040  147.1620 H      19  MOL19       0.0284
  12254  H12      111.9780   77.4290  146.3360 H      19  MOL19       0.0284
  12255  H12      109.6340   78.5590  144.9280 H      19  MOL19       0.0385
  12256  H12      109.2610   78.2390  146.6230 H      19  MOL19       0.0385
  12257  H12      112.9080   80.0670  146.8120 H      19  MOL19       0.0276
  12258  H12      111.6150   81.0650  146.1720 H      19  MOL19       0.0276
  12259  H12      114.4020   80.6700  144.8830 H      19  MOL19       0.0266
  12260  H12      113.9400   81.9720  145.8830 H      19  MOL19       0.0266
  12261  H12      113.4200   82.9070  143.7040 H      19  MOL19       0.0270
  12262  H12      111.8780   82.2180  144.1730 H      19  MOL19       0.0270
  12263  H12      112.6630   81.7530  141.8100 H      19  MOL19       0.0377
  12264  H12      112.2420   80.2710  142.6650 H      19  MOL19       0.0377
  12265  H12      119.9990   71.4760  139.7850 H      19  MOL19       0.0412
  12266  H12      118.8990   69.0760  137.4620 H      19  MOL19       0.0341
  12267  H12      117.7020   70.2640  138.0150 H      19  MOL19       0.0341
  12268  H12      118.9150   69.6020  139.1710 H      19  MOL19       0.0341
  12269  H12      107.8660   85.0880  146.9870 H      19  MOL19       0.0540
  12270  H12      106.5810   85.6590  148.1740 H      19  MOL19       0.0540
  12271  H12      106.4820   88.3300  148.3600 H      19  MOL19       0.0280
  12272  H12      105.4530   88.1460  146.9240 H      19  MOL19       0.0280
  12273  H12      106.8450   89.2490  146.8900 H      19  MOL19       0.0280
  12274  H12      108.9180   87.1210  143.3090 H      19  MOL19       0.0735
  12275  H12      110.4500   87.2800  144.1130 H      19  MOL19       0.0735
  12276  H12      109.5900   85.7780  142.1510 H      19  MOL19       0.0765
  12277  H12      111.5140   84.3130  141.7540 H      19  MOL19       0.0266
  12278  H12      111.8560   84.2820  143.4000 H      19  MOL19       0.0266
  12279  H12      112.0790   85.8000  142.4110 H      19  MOL19       0.0266
  12280  H12      107.9560   76.8470  143.3170 H      19  MOL19       0.0421
  12281  H12      105.4960   76.0630  143.8060 H      19  MOL19       0.0284
  12282  H12      106.2360   76.3720  142.2910 H      19  MOL19       0.0284
  12283  H12      104.0700   77.8760  143.4970 H      19  MOL19       0.0385
  12284  H12      104.0200   76.6990  142.2530 H      19  MOL19       0.0385
  12285  H12      106.6830   79.3480  142.9160 H      19  MOL19       0.0276
  12286  H12      108.3650   79.0290  142.9460 H      19  MOL19       0.0276
  12287  H12      107.8990   79.4580  145.6610 H      19  MOL19       0.0266
  12288  H12      106.7560   80.4800  144.8000 H      19  MOL19       0.0266
  12289  H12      109.5690   80.3950  143.7520 H      19  MOL19       0.0270
  12290  H12      109.3050   81.3090  145.2260 H      19  MOL19       0.0270
  12291  H12      107.5030   82.6450  143.9230 H      19  MOL19       0.0377
  12292  H12      107.8820   81.5670  142.5700 H      19  MOL19       0.0377
  12293  H12      125.8310   77.5620  140.6410 H      19  MOL19       0.0540
  12294  H12      124.5220   77.5200  141.9080 H      19  MOL19       0.0540
  12295  H12      126.8190   80.9600  141.6100 H      19  MOL19       0.0280
  12296  H12      125.9920   80.7680  140.0440 H      19  MOL19       0.0280
  12297  H12      127.2150   79.6310  140.5080 H      19  MOL19       0.0280
  12298  H12      122.2170   80.7230  143.1660 H      19  MOL19       0.0735
  12299  H12      121.6170   79.5200  141.9870 H      19  MOL19       0.0735
  12300  H12      122.1560   78.5970  144.6010 H      19  MOL19       0.0765
  12301  H12      120.1100   79.3250  145.8360 H      19  MOL19       0.0266
  12302  H12      119.5500   80.3250  144.5270 H      19  MOL19       0.0266
  12303  H12      120.9950   80.8040  145.3490 H      19  MOL19       0.0266
  12304  H12      114.8280   75.0120  141.2080 H      19  MOL19       0.0421
  12305  H12      112.7440   74.5870  143.2610 H      19  MOL19       0.0284
  12306  H12      112.2790   74.6790  141.5710 H      19  MOL19       0.0284
  12307  H12      113.6630   76.9680  141.6900 H      19  MOL19       0.0385
  12308  H12      114.0150   76.4870  143.3150 H      19  MOL19       0.0385
  12309  H12      115.8220   73.7080  143.4630 H      19  MOL19       0.0276
  12310  H12      114.9170   75.0200  144.0380 H      19  MOL19       0.0276
  12311  H12      116.0140   76.3550  141.9620 H      19  MOL19       0.0266
  12312  H12      117.2260   75.0900  142.1330 H      19  MOL19       0.0266
  12313  H12      117.0450   76.0740  144.6370 H      19  MOL19       0.0270
  12314  H12      116.6080   77.5240  143.6940 H      19  MOL19       0.0270
  12315  H12      119.0440   76.0240  142.7930 H      19  MOL19       0.0377
  12316  H12      119.1620   76.3750  144.4870 H      19  MOL19       0.0377
  12317  H12      120.3810  100.3250  139.1230 H      19  MOL19       0.0263
  12318  H12      119.8480   99.9040  140.7390 H      19  MOL19       0.0263
  12319  H12      118.1510  100.3000  138.3760 H      19  MOL19       0.0265
  12320  H12      117.4970  100.7930  139.9470 H      19  MOL19       0.0265
  12321  H12      117.9850   98.6160  140.9310 H      19  MOL19       0.0265
  12322  H12      119.0740   98.2010  139.6400 H      19  MOL19       0.0265
  12323  H12      117.4690   98.0790  138.0160 H      19  MOL19       0.0265
  12324  H12      116.2440   98.7620  139.1650 H      19  MOL19       0.0265
  12325  H12      116.2930   96.7580  140.4770 H      19  MOL19       0.0265
  12326  H12      117.3120   95.9740  139.3200 H      19  MOL19       0.0265
  12327  H12      115.6230   96.3330  137.4900 H      19  MOL19       0.0265
  12328  H12      114.8590   97.5860  138.3800 H      19  MOL19       0.0265
  12329  H12      113.9320   95.1260  138.0670 H      19  MOL19       0.0265
  12330  H12      113.3480   96.3320  139.1760 H      19  MOL19       0.0265
  12331  H12      115.2820   94.8850  140.7510 H      19  MOL19       0.0265
  12332  H12      114.4990   93.7160  139.7210 H      19  MOL19       0.0265
  12333  H12      112.3170   94.9030  140.4240 H      19  MOL19       0.0266
  12334  H12      113.3790   95.0160  141.9190 H      19  MOL19       0.0266
  12335  H12      113.9050   92.6440  141.1730 H      19  MOL19       0.0298
  12336  H12      112.3450   92.6650  140.3200 H      19  MOL19       0.0298
  12337  H12      111.3990   92.0980  142.2960 H      19  MOL19       0.0697
  12338  H12      112.2300   93.3090  143.2840 H      19  MOL19       0.0697
  12339  H12      120.5190  102.5330  139.6270 H      19  MOL19       0.0230
  12340  H12      121.1520  101.6070  140.9410 H      19  MOL19       0.0230
  12341  H12      119.5930  102.4490  141.1330 H      19  MOL19       0.0230
  12342  H12      114.8970   89.7340  144.1160 H      19  MOL19       0.0411
  12343  H12      116.7940   90.8800  142.9370 H      19  MOL19       0.0238
  12344  H12      115.6430   91.9070  143.7110 H      19  MOL19       0.0238
  12345  H12      115.5260   91.8230  142.0590 H      19  MOL19       0.0238
  12346  H12      115.3750   88.9800  141.1740 H      19  MOL19       0.0273
  12347  H12      113.8200   88.5520  141.8980 H      19  MOL19       0.0273
  12348  H12      115.5040   84.8730  141.1580 H      19  MOL19       0.0240
  12349  H12      117.2450   84.7510  140.8900 H      19  MOL19       0.0240
  12350  H13      116.3170   86.0390  140.0660 H      19  MOL19       0.0240
  12351  O65       67.9580   79.2490  139.5130 O.2    20  MOL20      -0.2510
  12352  O65       67.4710   80.2560  137.6430 O.3    20  MOL20      -0.4806
  12353  C65       67.1950   79.9850  138.9460 C.2    20  MOL20       0.3047
  12354  C65       65.8290   80.7370  139.2920 C.3    20  MOL20       0.0448
  12355  C65       65.1930   81.4880  140.5510 C.3    20  MOL20      -0.0430
  12356  C65       64.4010   82.9230  140.6830 C.3    20  MOL20      -0.0515
  12357  C65       64.2010   83.4180  142.2460 C.3    20  MOL20      -0.0403
  12358  S65       66.8340   88.2340  142.5100 S.3    20  MOL20      -0.0928
  12359  C65       65.2270   87.2300  143.3070 C.3    20  MOL20       0.0050
  12360  C66       64.0390   86.1190  142.9730 C.3    20  MOL20      -0.0305
  12361  C66       69.2170   87.2360  129.1280 C.2    20  MOL20       0.3129
  12362  C66       69.5750   88.5470  128.2750 C.3    20  MOL20       0.0622
  12363  C66       70.5790   89.6000  128.7750 C.3    20  MOL20      -0.0370
  12364  C66       70.2820   88.2000  126.9950 C.3    20  MOL20      -0.0497
  12365  O66       69.9840   86.4050  129.5250 O.2    20  MOL20      -0.2502
  12366  O66       67.8530   87.1840  129.3500 O.3    20  MOL20      -0.4605
  12367  C66       67.0020   86.1880  130.0540 C.3    20  MOL20       0.1290
  12368  C66       65.8560   86.5860  131.0480 C.3    20  MOL20       0.1341
  12369  C66       66.5740   86.9600  132.2820 C.3    20  MOL20      -0.0244
  12370  C67       60.9410   90.3660  136.4570 C.3    20  MOL20       0.0162
  12371  C67       61.7560   91.1010  137.6720 C.3    20  MOL20      -0.0305
  12372  C67       62.5260   92.3850  138.2780 C.3    20  MOL20       0.0050
  12373  S67       61.9240   94.1700  138.3430 S.3    20  MOL20      -0.0928
  12374  C67       60.4890   89.9510  134.8810 C.3    20  MOL20      -0.0403
  12375  C67       60.4440   89.7290  133.2590 C.3    20  MOL20      -0.0515
  12376  C67       61.1330   89.3530  131.8400 C.3    20  MOL20      -0.0429
  12377  C67       62.1900   88.4260  131.0470 C.3    20  MOL20       0.0450
  12378  C67       63.2720   87.2420  131.0090 C.2    20  MOL20       0.3074
  12379  O67       64.6230   87.4770  131.0880 O.3    20  MOL20      -0.4582
  12380  O68       62.8560   86.1500  130.8040 O.2    20  MOL20      -0.2508
  12381  C68       64.1610   84.6790  143.4540 C.3    20  MOL20       0.0162
  12382  C68       69.6980   95.7800  128.6650 C.2    20  MOL20       0.3344
  12383  C68       69.3450   97.0540  127.8940 C.2    20  MOL20       0.0264
  12384  C68       68.7560   98.1110  128.4710 C.2    20  MOL20      -0.0890
  12385  C68       69.5440   97.2200  126.4110 C.3    20  MOL20      -0.0335
  12386  O68       70.2600   94.8860  128.0850 O.2    20  MOL20      -0.2453
  12387  O68       69.3700   95.6590  129.9930 O.3    20  MOL20      -0.4577
  12388  C68       69.1660   94.6230  131.0480 C.3    20  MOL20       0.1293
  12389  C68       67.8390   94.1020  131.7950 C.3    20  MOL20       0.1341
  12390  C69       68.5650   93.3560  132.9540 C.3    20  MOL20      -0.0244
  12391  C69       62.9670   96.9880  138.5140 C.3    20  MOL20       0.0162
  12392  C69       61.8180   97.8780  138.9820 C.3    20  MOL20      -0.0313
  12393  C69       61.8350   99.0540  138.0390 C.3    20  MOL20      -0.0056
  12394  S69       60.3200   99.3540  137.1590 S.3    20  MOL20      -0.1641
  12395  C69       64.2800   97.8310  137.8920 C.3    20  MOL20      -0.0403
  12396  C69       65.0710   97.9600  136.3970 C.3    20  MOL20      -0.0515
  12397  C69       65.4680   97.7930  134.7540 C.3    20  MOL20      -0.0429
  12398  C69       65.4950   97.2440  133.1230 C.3    20  MOL20       0.0450
  12399  C69       65.4210   95.9110  132.0580 C.2    20  MOL20       0.3074
  12400  O70       66.4450   94.8640  131.8420 O.3    20  MOL20      -0.4582
  12401  O70       64.4720   95.7940  131.3600 O.2    20  MOL20      -0.2508
  12402  C70       60.8540  100.3720  135.7260 C.3    20  MOL20      -0.0181
  12403  S70       63.1120   95.4330  139.5240 S.3    20  MOL20      -0.0897
  12404  C70       66.8910   78.1300  134.6780 C.2    20  MOL20       0.3344
  12405  C70       66.0610   76.9470  134.5450 C.2    20  MOL20       0.0264
  12406  C70       64.7400   77.1150  134.3400 C.2    20  MOL20      -0.0890
  12407  C70       66.7530   75.6310  134.5390 C.3    20  MOL20      -0.0335
  12408  O70       68.0710   78.0980  134.9440 O.2    20  MOL20      -0.2453
  12409  O70       66.3170   79.3220  134.4360 O.3    20  MOL20      -0.4577
  12410  C71       66.9380   80.1500  133.4800 C.3    20  MOL20       0.1293
  12411  C71       68.1460   80.8750  133.9540 C.3    20  MOL20       0.1341
  12412  C71       68.6150   81.8340  132.8680 C.3    20  MOL20      -0.0244
  12413  S71       67.6020   88.0640  140.5410 S.3    20  MOL20      -0.0897
  12414  C71       66.8150   86.8590  139.2300 C.3    20  MOL20       0.0162
  12415  C71       65.3240   86.3800  138.7790 C.3    20  MOL20      -0.0305
  12416  C71       63.7620   86.6990  138.4640 C.3    20  MOL20       0.0050
  12417  S71       62.2430   87.6410  137.9520 S.3    20  MOL20      -0.0928
  12418  C71       67.9460   86.8900  138.2100 C.3    20  MOL20      -0.0403
  12419  C71       68.1200   85.7360  137.2010 C.3    20  MOL20      -0.0515
  12420  C72       69.0020   84.4590  137.0980 C.3    20  MOL20      -0.0429
  12421  C72       68.5740   82.9820  136.8560 C.3    20  MOL20       0.0450
  12422  C72       67.6980   82.5120  135.7090 C.2    20  MOL20       0.3074
  12423  O72       68.2170   81.3350  135.3110 O.3    20  MOL20      -0.4582
  12424  O72       66.7930   83.0700  135.1820 O.2    20  MOL20      -0.2508
  12425  S72       60.6880   88.7550  137.3910 S.3    20  MOL20      -0.0897
  12426  C72       78.1720   96.8570  116.7860 C.3    20  MOL20      -0.0559
  12427  C72       77.0000   96.4360  117.6380 C.3    20  MOL20      -0.0533
  12428  C72       76.1350   97.3420  118.5190 C.3    20  MOL20      -0.0531
  12429  C72       75.1600   96.3860  119.2180 C.3    20  MOL20      -0.0531
  12430  C73       73.7180   96.6600  119.6470 C.3    20  MOL20      -0.0531
  12431  C73       72.9310   95.3190  119.6660 C.3    20  MOL20      -0.0531
  12432  C73       72.3860   95.0140  121.0520 C.3    20  MOL20      -0.0531
  12433  C73       72.6650   93.6850  121.7480 C.3    20  MOL20      -0.0530
  12434  C73       71.9540   93.8220  123.0820 C.3    20  MOL20      -0.0500
  12435  C73       72.4030   93.3160  124.4270 C.3    20  MOL20      -0.0185
  12436  C73       71.2580   93.5210  125.3560 C.3    20  MOL20       0.0925
  12437  C73       78.6740   95.6100  116.0410 C.3    20  MOL20      -0.0653
  12438  C73       71.7470   91.9120  128.5420 C.3    20  MOL20       0.0537
  12439  C73       72.1210   92.8960  127.4670 C.2    20  MOL20       0.3099
  12440  O74       71.3320   92.5960  126.4190 O.3    20  MOL20      -0.4644
  12441  O74       72.8610   93.8480  127.4290 O.2    20  MOL20      -0.2505
  12442  C74       72.6930   91.4090  129.6470 C.3    20  MOL20      -0.0523
  12443  C74       70.8990   90.7890  127.8590 C.3    20  MOL20      -0.0394
  12444  C74       68.3140   89.2040  127.8210 C.3    20  MOL20      -0.0497
  12445  O74       53.4880   84.3470  160.1860 O.2    20  MOL20      -0.2510
  12446  O74       55.6800   84.1430  160.6890 O.3    20  MOL20      -0.4806
  12447  C74       54.5120   83.7400  160.1200 C.2    20  MOL20       0.3047
  12448  C74       54.7680   82.4930  159.3100 C.3    20  MOL20       0.0448
  12449  C74       53.6660   81.4180  159.1850 C.3    20  MOL20      -0.0430
  12450  C75       53.4700   81.1720  157.7070 C.3    20  MOL20      -0.0515
  12451  C75       52.8980   79.8860  157.1340 C.3    20  MOL20      -0.0403
  12452  S75       55.5600   79.9680  152.8380 S.3    20  MOL20      -0.0928
  12453  C75       54.1030   80.6350  153.5970 C.3    20  MOL20       0.0050
  12454  C75       54.1420   80.5630  155.0840 C.3    20  MOL20      -0.0305
  12455  C75       58.5260   89.6210  146.1440 C.2    20  MOL20       0.3129
  12456  C75       57.9780   90.7930  146.9790 C.3    20  MOL20       0.0622
  12457  C75       57.5880   90.2300  148.3290 C.3    20  MOL20      -0.0370
  12458  C75       59.2350   91.5880  147.3260 C.3    20  MOL20      -0.0497
  12459  O75       59.6520   89.6810  145.7400 O.2    20  MOL20      -0.2502
  12460  O76       57.7280   88.4790  146.0190 O.3    20  MOL20      -0.4605
  12461  C76       56.4270   88.4840  145.4030 C.3    20  MOL20       0.1290
  12462  C76       55.7410   87.1990  144.9250 C.3    20  MOL20       0.1341
  12463  C76       56.2120   86.0380  144.0570 C.3    20  MOL20      -0.0244
  12464  C76       58.2410   81.9390  146.7910 C.3    20  MOL20       0.0162
  12465  C76       58.9760   81.2660  145.4280 C.3    20  MOL20      -0.0305
  12466  C76       59.9500   80.6640  144.2270 C.3    20  MOL20       0.0050
  12467  S76       61.7080   80.5560  143.6630 S.3    20  MOL20      -0.0928
  12468  C76       57.3330   83.1230  146.4780 C.3    20  MOL20      -0.0403
  12469  C76       57.1790   84.1820  147.6430 C.3    20  MOL20      -0.0515
  12470  C77       55.8580   84.8800  148.1070 C.3    20  MOL20      -0.0429
  12471  C77       54.4960   84.9340  147.3840 C.3    20  MOL20       0.0450
  12472  C77       54.3110   85.7950  146.2350 C.2    20  MOL20       0.3074
  12473  O77       55.4560   86.4770  146.1180 O.3    20  MOL20      -0.4582
  12474  O77       53.3490   85.8840  145.5080 O.2    20  MOL20      -0.2508
  12475  S77       53.3730   77.9500  155.2090 S.3    20  MOL20      -0.0897
  12476  C77       53.0300   79.7000  155.6230 C.3    20  MOL20       0.0162
  12477  C77       67.7760   75.1810  140.9350 C.2    20  MOL20       0.3344
  12478  C77       68.7150   74.4120  140.1670 C.2    20  MOL20       0.0264
  12479  C77       68.6480   74.4320  138.8280 C.2    20  MOL20      -0.0890
  12480  C78       69.6450   73.6210  140.9930 C.3    20  MOL20      -0.0335
  12481  O78       67.5080   74.9170  142.0870 O.2    20  MOL20      -0.2453
  12482  O78       67.2280   76.2360  140.3060 O.3    20  MOL20      -0.4577
  12483  C78       66.0970   76.7930  140.9130 C.3    20  MOL20       0.1293
  12484  C78       66.1860   78.1350  141.5040 C.3    20  MOL20       0.1341
  12485  C78       64.6420   78.5290  141.6310 C.3    20  MOL20      -0.0244
  12486  C78       64.0520   81.9410  145.5620 C.3    20  MOL20       0.0162
  12487  C78       64.1120   82.7220  146.9020 C.3    20  MOL20      -0.0305
  12488  C78       65.3730   83.4200  147.3110 C.3    20  MOL20       0.0050
  12489  S78       65.2580   85.1200  146.8490 S.3    20  MOL20      -0.0928
  12490  C79       64.5670   80.5330  145.6870 C.3    20  MOL20      -0.0403
  12491  C79       66.1370   80.6320  145.9170 C.3    20  MOL20      -0.0515
  12492  C79       67.4140   79.6100  145.8210 C.3    20  MOL20      -0.0429
  12493  C79       68.3850   78.9170  144.6640 C.3    20  MOL20       0.0450
  12494  C79       68.1110   77.9730  143.3820 C.2    20  MOL20       0.3074
  12495  O79       67.3010   78.5470  142.4250 O.3    20  MOL20      -0.4582
  12496  O79       68.5370   76.8540  143.3630 O.2    20  MOL20      -0.2508
  12497  S79       65.3770   84.6360  144.8680 S.3    20  MOL20      -0.0897
  12498  S79       62.7150   82.2150  144.2790 S.3    20  MOL20      -0.0897
  12499  C79       52.1720   83.1690  155.5670 C.2    20  MOL20       0.3344
  12500  C80       51.1960   82.4910  156.4300 C.2    20  MOL20       0.0264
  12501  C80       50.4980   81.5960  155.7640 C.2    20  MOL20      -0.0890
  12502  C80       51.0340   82.6190  157.9230 C.3    20  MOL20      -0.0335
  12503  O80       53.0310   83.8670  156.0400 O.2    20  MOL20      -0.2453
  12504  O80       52.1420   83.0480  154.1910 O.3    20  MOL20      -0.4577
  12505  C80       52.7350   84.1890  153.5830 C.3    20  MOL20       0.1293
  12506  C80       54.1140   84.0640  153.1100 C.3    20  MOL20       0.1341
  12507  C80       54.3870   85.2310  152.1380 C.3    20  MOL20      -0.0244
  12508  S80       55.9240   78.1790  153.7730 S.3    20  MOL20      -0.0897
  12509  C80       57.5930   78.1020  153.0720 C.3    20  MOL20       0.0162
  12510  C81       57.3360   77.8300  151.5620 C.3    20  MOL20      -0.0305
  12511  C81       57.9540   78.6300  150.4280 C.3    20  MOL20       0.0050
  12512  S81       56.8250   79.9820  149.8660 S.3    20  MOL20      -0.0928
  12513  C81       58.3410   79.3660  153.5030 C.3    20  MOL20      -0.0403
  12514  C81       58.1060   79.9700  154.9140 C.3    20  MOL20      -0.0515
  12515  C81       57.9180   81.5330  155.0480 C.3    20  MOL20      -0.0429
  12516  C81       57.0650   82.8420  155.0290 C.3    20  MOL20       0.0450
  12517  C81       56.2380   83.4360  153.9180 C.2    20  MOL20       0.3074
  12518  O81       54.9410   83.6350  154.2240 O.3    20  MOL20      -0.4582
  12519  O81       56.7060   83.8980  152.9230 O.2    20  MOL20      -0.2508
  12520  S82       57.1330   81.3190  148.2800 S.3    20  MOL20      -0.0897
  12521  C82       49.9610  101.0700  156.1070 C.3    20  MOL20      -0.0559
  12522  C82       51.3260  100.4590  155.9510 C.3    20  MOL20      -0.0533
  12523  C82       51.1860   98.9470  156.0720 C.3    20  MOL20      -0.0531
  12524  C82       51.3440   98.3210  154.6870 C.3    20  MOL20      -0.0531
  12525  C82       51.1320   96.7970  154.4810 C.3    20  MOL20      -0.0531
  12526  C82       52.2300   96.4340  153.5280 C.3    20  MOL20      -0.0531
  12527  C82       52.9000   95.1510  153.1050 C.3    20  MOL20      -0.0531
  12528  C82       52.4280   93.7820  152.7210 C.3    20  MOL20      -0.0530
  12529  C82       52.9590   92.7220  153.6470 C.3    20  MOL20      -0.0500
  12530  C83       54.4710   92.7640  153.8840 C.3    20  MOL20      -0.0185
  12531  C83       55.3460   93.3980  152.8110 C.3    20  MOL20       0.0925
  12532  C83       49.9160  102.5410  155.9290 C.3    20  MOL20      -0.0653
  12533  C83       56.2800   91.8410  149.6830 C.3    20  MOL20       0.0537
  12534  C83       56.3010   92.9320  150.6980 C.2    20  MOL20       0.3099
  12535  O83       55.3710   92.6210  151.6240 O.3    20  MOL20      -0.4644
  12536  O83       57.0050   93.9190  150.7220 O.2    20  MOL20      -0.2505
  12537  C83       55.3440   90.6640  149.9630 C.3    20  MOL20      -0.0523
  12538  C83       57.6360   91.2000  149.5140 C.3    20  MOL20      -0.0394
  12539  C83       56.9420   91.5910  146.1920 C.3    20  MOL20      -0.0497
  12540  O84       58.8020   56.5480  158.3770 O.2    20  MOL20      -0.2510
  12541  O84       59.8850   58.4760  158.7800 O.3    20  MOL20      -0.4806
  12542  C84       58.7620   57.7100  158.6210 C.2    20  MOL20       0.3047
  12543  C84       57.5130   58.5780  158.7550 C.3    20  MOL20       0.0448
  12544  C84       56.1480   57.7970  158.6920 C.3    20  MOL20      -0.0430
  12545  C84       54.6250   58.3620  158.6890 C.3    20  MOL20      -0.0516
  12546  C84       53.1140   58.9700  158.7030 C.3    20  MOL20      -0.0411
  12547  S84       52.5890   64.2470  159.3210 S.3    20  MOL20      -0.0928
  12548  C84       51.4370   62.8380  159.4990 C.3    20  MOL20       0.0049
  12549  C84       52.3140   61.7390  158.8500 C.3    20  MOL20      -0.0313
  12550  C85       61.2380   67.5890  150.9740 C.2    20  MOL20       0.3129
  12551  C85       60.7660   67.7720  149.5540 C.3    20  MOL20       0.0622
  12552  C85       60.6100   69.2030  148.9660 C.3    20  MOL20      -0.0370
  12553  C85       61.4230   66.6850  148.7880 C.3    20  MOL20      -0.0497
  12554  O85       62.1500   66.8900  151.3450 O.2    20  MOL20      -0.2502
  12555  O85       60.3510   68.2170  151.7970 O.3    20  MOL20      -0.4605
  12556  C85       60.2240   67.6030  153.0660 C.3    20  MOL20       0.1290
  12557  C85       58.8800   67.1090  153.4260 C.3    20  MOL20       0.1341
  12558  C85       59.1450   66.3770  154.7220 C.3    20  MOL20      -0.0244
  12559  C85       57.5870   71.2270  157.3020 C.3    20  MOL20       0.0162
  12560  C86       57.6280   71.8030  158.7150 C.3    20  MOL20      -0.0305
  12561  C86       56.6150   72.9230  158.8240 C.3    20  MOL20       0.0050
  12562  S86       55.2350   72.8130  159.9380 S.3    20  MOL20      -0.0928
  12563  C86       58.9720   71.1730  156.7500 C.3    20  MOL20      -0.0403
  12564  C86       59.2310   70.1950  155.6170 C.3    20  MOL20      -0.0515
  12565  C86       58.4300   70.5880  154.3730 C.3    20  MOL20      -0.0429
  12566  C86       57.0180   70.0030  154.3190 C.3    20  MOL20       0.0450
  12567  C86       57.1560   68.5340  154.4740 C.2    20  MOL20       0.3074
  12568  O86       58.1160   68.2920  153.5710 O.3    20  MOL20      -0.4582
  12569  O86       56.5920   67.7400  155.1840 O.2    20  MOL20      -0.2508
  12570  S87       50.4620   59.6550  159.2420 S.3    20  MOL20      -0.1607
  12571  C87       52.1820   60.2100  159.1390 C.3    20  MOL20       0.0058
  12572  C87       49.7930   60.6190  160.5730 C.3    20  MOL20      -0.0178
  12573  C87       60.7970   76.7570  151.1940 C.2    20  MOL20       0.3344
  12574  C87       61.2640   77.8540  152.0470 C.2    20  MOL20       0.0264
  12575  C87       61.0330   77.7670  153.3630 C.2    20  MOL20      -0.0890
  12576  C87       61.9420   79.0380  151.4120 C.3    20  MOL20      -0.0335
  12577  O87       60.9230   76.8500  149.9940 O.2    20  MOL20      -0.2453
  12578  O87       60.1750   75.6480  151.7310 O.3    20  MOL20      -0.4577
  12579  C87       59.6470   74.7450  150.7480 C.3    20  MOL20       0.1293
  12580  C88       58.4870   73.8920  151.2210 C.3    20  MOL20       0.1341
  12581  C88       58.4840   72.3290  151.2530 C.3    20  MOL20      -0.0244
  12582  C88       53.8400   74.7660  158.1850 C.3    20  MOL20       0.0162
  12583  C88       52.5660   75.6480  158.3350 C.3    20  MOL20      -0.0305
  12584  C88       52.0460   76.8330  157.5470 C.3    20  MOL20       0.0050
  12585  S88       51.7730   76.8550  155.7580 S.3    20  MOL20      -0.0928
  12586  C88       54.5390   74.7980  156.8110 C.3    20  MOL20      -0.0403
  12587  C88       56.0110   75.1590  156.6620 C.3    20  MOL20      -0.0515
  12588  C88       56.6670   74.2660  155.6180 C.3    20  MOL20      -0.0429
  12589  C88       56.4130   74.7810  154.2260 C.3    20  MOL20       0.0450
  12590  C89       57.0280   73.8270  153.2440 C.2    20  MOL20       0.3074
  12591  O89       57.8750   74.4960  152.4010 O.3    20  MOL20      -0.4582
  12592  O89       56.7620   72.6570  153.2310 O.2    20  MOL20      -0.2508
  12593  S89       54.8900   74.7880  159.6700 S.3    20  MOL20      -0.0897
  12594  C89       60.5700   59.0040  154.8170 C.2    20  MOL20       0.3344
  12595  C89       59.9130   57.7200  154.6220 C.2    20  MOL20       0.0264
  12596  C89       58.9990   57.4670  155.5500 C.2    20  MOL20      -0.0890
  12597  C89       60.2120   56.7930  153.4940 C.3    20  MOL20      -0.0335
  12598  O89       61.5450   59.3380  154.1800 O.2    20  MOL20      -0.2453
  12599  O89       60.0130   59.8640  155.7460 O.3    20  MOL20      -0.4577
  12600  C90       59.8770   61.2230  155.3300 C.3    20  MOL20       0.1293
  12601  C90       60.0890   62.0980  156.5130 C.3    20  MOL20       0.1341
  12602  C90       60.9490   63.3810  156.3490 C.3    20  MOL20      -0.0244
  12603  S90       52.2480   65.9920  160.3700 S.3    20  MOL20      -0.0897
  12604  C90       53.5290   66.7700  159.3430 C.3    20  MOL20       0.0162
  12605  C90       53.5290   68.2790  159.1170 C.3    20  MOL20      -0.0305
  12606  C90       54.5660   68.5270  158.0440 C.3    20  MOL20       0.0050
  12607  S90       54.9770   70.2450  157.7610 S.3    20  MOL20      -0.0928
  12608  C90       54.9040   66.2600  159.7460 C.3    20  MOL20      -0.0403
  12609  C90       55.4690   65.3850  158.6170 C.3    20  MOL20      -0.0515
  12610  C91       56.9720   65.2590  158.4410 C.3    20  MOL20      -0.0429
  12611  C91       57.5000   63.8450  158.2040 C.3    20  MOL20       0.0450
  12612  C91       58.2500   63.4270  156.9690 C.2    20  MOL20       0.3074
  12613  O91       58.9520   62.3360  157.3480 O.3    20  MOL20      -0.4582
  12614  O91       58.3140   63.8800  155.8610 O.2    20  MOL20      -0.2508
  12615  S91       56.8470   69.6260  157.3140 S.3    20  MOL20      -0.0897
  12616  C91       67.7260   67.7270  136.6370 C.3    20  MOL20      -0.0559
  12617  C91       66.6670   68.8040  136.7360 C.3    20  MOL20      -0.0533
  12618  C91       66.1400   68.6710  138.1680 C.3    20  MOL20      -0.0531
  12619  C91       64.7910   69.2740  138.2520 C.3    20  MOL20      -0.0531
  12620  C92       64.1640   69.5510  139.5790 C.3    20  MOL20      -0.0531
  12621  C92       62.9400   70.3960  139.2280 C.3    20  MOL20      -0.0531
  12622  C92       62.3780   71.3470  140.2730 C.3    20  MOL20      -0.0531
  12623  C92       62.8190   71.2540  141.7370 C.3    20  MOL20      -0.0530
  12624  C92       62.9110   72.5820  142.4290 C.3    20  MOL20      -0.0500
  12625  C92       62.2040   72.5360  143.7450 C.3    20  MOL20      -0.0185
  12626  C92       62.7440   73.2960  144.9250 C.3    20  MOL20       0.0925
  12627  C92       69.0160   67.6930  135.8630 C.3    20  MOL20      -0.0653
  12628  C92       62.7160   70.5430  147.2930 C.3    20  MOL20       0.0537
  12629  C92       62.5130   71.9970  147.0250 C.2    20  MOL20       0.3099
  12630  O93       63.0280   72.2290  145.8150 O.3    20  MOL20      -0.4644
  12631  O93       62.0080   72.8050  147.7550 O.2    20  MOL20      -0.2505
  12632  C93       63.5830   69.9170  146.1680 C.3    20  MOL20      -0.0523
  12633  C93       61.3280   69.8910  147.7560 C.3    20  MOL20      -0.0394
  12634  C93       59.3180   67.3650  149.6830 C.3    20  MOL20      -0.0497
  12635 5H93       66.7470   80.7330  137.2360 H      20  MOL20       0.2951
  12636 6H93       65.1940   79.8790  139.1210 H      20  MOL20       0.0377
  12637 7H93       65.7880   81.3290  138.4060 H      20  MOL20       0.0377
  12638 8H93       65.9250   81.4300  141.3230 H      20  MOL20       0.0270
  12639 9H93       64.3850   80.8270  140.9080 H      20  MOL20       0.0270
  12640 0H94       63.3720   82.5850  140.4590 H      20  MOL20       0.0266
  12641 1H94       64.4740   83.6850  139.9190 H      20  MOL20       0.0266
  12642 2H94       64.3930   82.4690  142.7340 H      20  MOL20       0.0276
  12643 3H94       63.1050   83.5260  142.1060 H      20  MOL20       0.0276
  12644 4H94       64.6900   88.1140  143.6260 H      20  MOL20       0.0385
  12645 5H94       65.6580   86.8710  144.2160 H      20  MOL20       0.0385
  12646 6H94       63.5190   85.9370  142.0170 H      20  MOL20       0.0284
  12647 7H94       63.2480   86.5330  143.5840 H      20  MOL20       0.0284
  12648 8H94       71.4460   89.0010  129.0120 H      20  MOL20       0.0276
  12649 9H94       70.3940   90.1750  129.6650 H      20  MOL20       0.0276
  12650 0H95       70.3690   87.1600  126.8320 H      20  MOL20       0.0240
  12651 1H95       71.2990   88.5450  126.9000 H      20  MOL20       0.0240
  12652 2H95       69.7600   88.6300  126.1500 H      20  MOL20       0.0240
  12653 3H95       66.5840   85.4720  129.3410 H      20  MOL20       0.0735
  12654 4H95       67.6630   85.5670  130.6880 H      20  MOL20       0.0735
  12655 5H95       65.5190   85.6100  131.3200 H      20  MOL20       0.0765
  12656 6H95       65.7470   87.1300  132.9400 H      20  MOL20       0.0266
  12657 7H95       67.1500   87.8680  132.3510 H      20  MOL20       0.0266
  12658 8H95       67.2510   86.1460  132.5010 H      20  MOL20       0.0266
  12659 9H95       59.8960   90.6110  136.7440 H      20  MOL20       0.0421
  12660 0H96       62.5260   90.3640  137.9800 H      20  MOL20       0.0284
  12661 1H96       60.9670   90.9200  138.4160 H      20  MOL20       0.0284
  12662 2H96       63.5900   92.3810  138.0260 H      20  MOL20       0.0385
  12663 3H96       62.5620   91.9900  139.2830 H      20  MOL20       0.0385
  12664 4H96       60.6270   88.9100  135.0870 H      20  MOL20       0.0276
  12665 5H96       59.4010   90.0000  135.0160 H      20  MOL20       0.0276
  12666 6H96       59.9580   90.6480  132.8760 H      20  MOL20       0.0266
  12667 7H96       59.6210   88.9950  133.3120 H      20  MOL20       0.0266
  12668 8H96       61.3270   90.3440  131.3750 H      20  MOL20       0.0270
  12669 9H96       60.2060   89.0520  131.3180 H      20  MOL20       0.0270
  12670 0H97       62.1580   88.8980  130.0520 H      20  MOL20       0.0377
  12671 1H97       61.4210   87.6450  130.9250 H      20  MOL20       0.0377
  12672 2H97       63.1360   84.5260  143.8190 H      20  MOL20       0.0421
  12673 3H97       68.4210   98.9610  127.8780 H      20  MOL20       0.0540
  12674 4H97       68.4390   98.1370  129.5060 H      20  MOL20       0.0540
  12675 5H97       70.1100   98.1320  126.1940 H      20  MOL20       0.0280
  12676 6H97       68.5850   97.4130  125.9300 H      20  MOL20       0.0280
  12677 7H97       69.9730   96.3270  125.9520 H      20  MOL20       0.0280
  12678 8H97       69.7390   93.7340  130.7830 H      20  MOL20       0.0735
  12679 9H97       69.6830   95.1230  131.8750 H      20  MOL20       0.0735
  12680 0H98       67.3740   93.3020  131.2860 H      20  MOL20       0.0765
  12681 1H98       69.3680   92.7780  132.4630 H      20  MOL20       0.0266
  12682 2H98       68.0140   92.5880  133.4990 H      20  MOL20       0.0266
  12683 3H98       69.0750   93.9840  133.6950 H      20  MOL20       0.0266
  12684 4H98       62.2960   96.5520  137.7960 H      20  MOL20       0.0421
  12685 5H98       61.9480   98.2190  139.9940 H      20  MOL20       0.0284
  12686 6H98       60.8650   97.3240  138.9250 H      20  MOL20       0.0284
  12687 7H98       62.4720   98.8410  137.1790 H      20  MOL20       0.0377
  12688 8H98       62.2490   99.8600  138.6420 H      20  MOL20       0.0377
  12689 9H98       64.0990   98.8950  138.1260 H      20  MOL20       0.0276
  12690 0H99       65.1820   97.6720  138.4850 H      20  MOL20       0.0276
  12691 1H99       65.8480   97.2470  136.6880 H      20  MOL20       0.0266
  12692 2H99       65.6020   98.9250  136.5390 H      20  MOL20       0.0266
  12693 3H99       66.5520   97.6870  134.9880 H      20  MOL20       0.0270
  12694 4H99       65.5990   98.8320  134.6190 H      20  MOL20       0.0270
  12695 5H99       66.1660   97.9730  132.7330 H      20  MOL20       0.0377
  12696 6H99       64.5460   97.5090  132.7070 H      20  MOL20       0.0377
  12697 7H99       60.6260  101.4460  135.7720 H      20  MOL20       0.0340
  12698 8H99       60.3410  100.0600  134.8240 H      20  MOL20       0.0340
  12699 9H99       61.9100  100.2370  135.5190 H      20  MOL20       0.0340
  12700  H10       64.0590   76.2780  134.2350 H      20  MOL20       0.0540
  12701  H10       64.2910   78.0950  134.2260 H      20  MOL20       0.0540
  12702  H10       67.0720   75.3790  135.5490 H      20  MOL20       0.0280
  12703  H10       67.6360   75.5950  133.8910 H      20  MOL20       0.0280
  12704  H10       66.0610   74.8780  134.1510 H      20  MOL20       0.0280
  12705  H10       67.2680   79.5590  132.6200 H      20  MOL20       0.0735
  12706  H10       66.1330   80.7610  133.0680 H      20  MOL20       0.0735
  12707  H10       68.8990   80.0930  133.9950 H      20  MOL20       0.0765
  12708  H10       69.4350   82.4900  133.1550 H      20  MOL20       0.0266
  12709  H10       67.8130   82.4670  132.4770 H      20  MOL20       0.0266
  12710  H10       68.9780   81.2180  132.0480 H      20  MOL20       0.0266
  12711  H10       67.0710   85.8500  139.4240 H      20  MOL20       0.0421
  12712  H10       65.6670   85.9600  137.8550 H      20  MOL20       0.0284
  12713  H10       65.1320   85.5160  139.4300 H      20  MOL20       0.0284
  12714  H10       63.2130   86.3010  139.3270 H      20  MOL20       0.0385
  12715  H10       63.3860   85.8360  137.8990 H      20  MOL20       0.0385
  12716  H10       68.7870   86.8650  138.8440 H      20  MOL20       0.0276
  12717  H10       68.0830   87.8780  137.7600 H      20  MOL20       0.0276
  12718  H10       68.5050   86.3290  136.3970 H      20  MOL20       0.0266
  12719  H10       67.1500   85.4080  136.9450 H      20  MOL20       0.0266
  12720  H10       69.7630   84.3810  137.8680 H      20  MOL20       0.0270
  12721  H10       69.6060   84.6700  136.2180 H      20  MOL20       0.0270
  12722  H10       68.3230   82.3590  137.7050 H      20  MOL20       0.0377
  12723  H10       69.4890   82.4760  136.6300 H      20  MOL20       0.0377
  12724  H10       78.9530   97.2260  117.4390 H      20  MOL20       0.0263
  12725  H10       77.9510   97.6960  116.1300 H      20  MOL20       0.0263
  12726  H10       77.4650   95.7240  118.2990 H      20  MOL20       0.0265
  12727  H10       76.3250   95.8650  116.9890 H      20  MOL20       0.0265
  12728  H10       75.6250   98.0870  117.9230 H      20  MOL20       0.0265
  12729  H10       76.7290   97.8950  119.2620 H      20  MOL20       0.0265
  12730  H10       75.6870   96.0770  120.1170 H      20  MOL20       0.0265
  12731  H10       75.0900   95.5020  118.5780 H      20  MOL20       0.0265
  12732  H10       73.1820   97.3420  118.9960 H      20  MOL20       0.0265
  12733  H10       73.7010   97.1670  120.6260 H      20  MOL20       0.0265
  12734  H10       73.5250   94.4790  119.2790 H      20  MOL20       0.0265
  12735  H10       72.0810   95.3880  118.9740 H      20  MOL20       0.0265
  12736  H10       71.2980   95.1520  121.0220 H      20  MOL20       0.0265
  12737  H10       72.7770   95.7820  121.7370 H      20  MOL20       0.0265
  12738  H10       73.7200   93.5250  121.9280 H      20  MOL20       0.0265
  12739  H10       72.3170   92.8200  121.1650 H      20  MOL20       0.0265
  12740  H10       70.9420   93.4660  122.9450 H      20  MOL20       0.0266
  12741  H10       71.8580   94.8900  123.2690 H      20  MOL20       0.0266
  12742  H10       73.2420   93.8910  124.8050 H      20  MOL20       0.0298
  12743  H10       72.6320   92.2530  124.5170 H      20  MOL20       0.0298
  12744  H10       70.3730   93.2300  124.8070 H      20  MOL20       0.0697
  12745  H10       71.1260   94.5470  125.7110 H      20  MOL20       0.0697
  12746  H10       77.8640   95.0870  115.5260 H      20  MOL20       0.0230
  12747  H10       79.1330   94.8990  116.7330 H      20  MOL20       0.0230
  12748  H10       79.4270   95.8110  115.2790 H      20  MOL20       0.0230
  12749  H10       71.0900   92.5830  129.1060 H      20  MOL20       0.0411
  12750  H10       73.7440   91.4730  129.4070 H      20  MOL20       0.0238
  12751  H10       72.5050   90.3720  129.9250 H      20  MOL20       0.0238
  12752  H10       72.5230   91.9270  130.5950 H      20  MOL20       0.0238
  12753  H10       71.4110   90.4790  126.9560 H      20  MOL20       0.0273
  12754  H10       69.9890   91.2630  127.4900 H      20  MOL20       0.0273
  12755  H10       68.5110   90.2240  127.5060 H      20  MOL20       0.0240
  12756  H10       67.5550   89.2470  128.5780 H      20  MOL20       0.0240
  12757  H10       67.9330   88.6550  126.9800 H      20  MOL20       0.0240
  12758  H10       56.3610   83.4890  160.5210 H      20  MOL20       0.2951
  12759  H10       55.6760   82.0240  159.6740 H      20  MOL20       0.0377
  12760  H10       54.9750   82.9440  158.3310 H      20  MOL20       0.0377
  12761  H10       52.7220   81.6920  159.6750 H      20  MOL20       0.0270
  12762  H10       54.0150   80.5030  159.6630 H      20  MOL20       0.0270
  12763  H10       54.4300   81.1620  157.2400 H      20  MOL20       0.0266
  12764  H10       53.1210   82.1050  157.3320 H      20  MOL20       0.0266
  12765  H10       51.9030   79.5960  157.4470 H      20  MOL20       0.0276
  12766  H10       53.6100   79.1730  157.5180 H      20  MOL20       0.0276
  12767  H10       53.1420   80.3070  153.2030 H      20  MOL20       0.0385
  12768  H10       54.1990   81.6800  153.3410 H      20  MOL20       0.0385
  12769  H10       54.0370   81.6010  155.4240 H      20  MOL20       0.0284
  12770  H10       55.1040   80.2100  155.4560 H      20  MOL20       0.0284
  12771  H10       58.2790   89.4110  148.5550 H      20  MOL20       0.0276
  12772  H10       56.6020   89.8080  148.2450 H      20  MOL20       0.0276
  12773  H10       59.7920   90.9650  148.0370 H      20  MOL20       0.0240
  12774  H10       59.0980   92.5560  147.8160 H      20  MOL20       0.0240
  12775  H10       59.8520   91.7500  146.4420 H      20  MOL20       0.0240
  12776  H10       56.3720   89.2600  144.6360 H      20  MOL20       0.0735
  12777  H10       55.7270   88.8000  146.1660 H      20  MOL20       0.0735
  12778  H10       54.8130   87.5580  144.4500 H      20  MOL20       0.0765
  12779  H10       55.3120   85.4490  143.8190 H      20  MOL20       0.0266
  12780  H10       56.8620   85.3830  144.6460 H      20  MOL20       0.0266
  12781  H10       56.7080   86.2400  143.1200 H      20  MOL20       0.0266
  12782  H10       58.9840   82.3040  147.4560 H      20  MOL20       0.0421
  12783  H10       58.1820   81.0670  144.7440 H      20  MOL20       0.0284
  12784  H10       59.4750   80.5050  145.9980 H      20  MOL20       0.0284
  12785  H10       59.3710   80.7260  143.3060 H      20  MOL20       0.0385
  12786  H10       59.7650   79.5840  144.3770 H      20  MOL20       0.0385
  12787  H10       56.3740   82.7000  146.2670 H      20  MOL20       0.0276
  12788  H10       57.6500   83.5030  145.5070 H      20  MOL20       0.0276
  12789  H10       57.9160   84.9920  147.6350 H      20  MOL20       0.0266
  12790  H10       57.5070   83.7160  148.5650 H      20  MOL20       0.0266
  12791  H10       56.1740   85.8760  148.4350 H      20  MOL20       0.0270
  12792  H10       55.6190   84.4270  149.0730 H      20  MOL20       0.0270
  12793  H10       53.7310   85.1550  148.1330 H      20  MOL20       0.0377
  12794  H10       54.2470   83.9710  146.9600 H      20  MOL20       0.0377
  12795  H10       52.1150   79.9880  155.1170 H      20  MOL20       0.0421
  12796  H10       67.8050   74.8730  138.3160 H      20  MOL20       0.0540
  12797  H10       69.3260   73.9680  138.1270 H      20  MOL20       0.0540
  12798  H10       70.7110   73.8470  140.8540 H      20  MOL20       0.0280
  12799  H10       69.3950   72.6390  140.6850 H      20  MOL20       0.0280
  12800  H11       69.3990   73.6990  142.0580 H      20  MOL20       0.0280
  12801  H11       65.3330   76.8730  140.1240 H      20  MOL20       0.0735
  12802  H11       65.7140   76.1010  141.6520 H      20  MOL20       0.0735
  12803  H11       66.3840   78.8080  140.7000 H      20  MOL20       0.0765
  12804  H11       64.3250   78.7710  140.6090 H      20  MOL20       0.0266
  12805  H11       64.3160   79.3660  142.2530 H      20  MOL20       0.0266
  12806  H11       63.9460   77.7350  141.9130 H      20  MOL20       0.0266
  12807  H11       64.8130   82.3830  144.9810 H      20  MOL20       0.0421
  12808  H11       63.9370   81.9750  147.6590 H      20  MOL20       0.0284
  12809  H11       63.3500   83.4770  147.0410 H      20  MOL20       0.0284
  12810  H11       66.2330   83.0540  146.7780 H      20  MOL20       0.0385
  12811  H11       65.4810   83.3930  148.4040 H      20  MOL20       0.0385
  12812  H11       64.1020   79.9840  144.8550 H      20  MOL20       0.0276
  12813  H11       64.1730   79.9530  146.5050 H      20  MOL20       0.0276
  12814  H11       66.0600   80.9040  146.9420 H      20  MOL20       0.0266
  12815  H11       66.4460   81.5890  145.4960 H      20  MOL20       0.0266
  12816  H11       67.1000   78.7820  146.4590 H      20  MOL20       0.0270
  12817  H11       68.1910   80.0650  146.4360 H      20  MOL20       0.0270
  12818  H11       68.9390   78.2240  145.3060 H      20  MOL20       0.0377
  12819  H11       69.1500   79.6510  144.3680 H      20  MOL20       0.0377
  12820  H11       49.7960   80.9430  156.2520 H      20  MOL20       0.0540
  12821  H11       50.7660   81.4430  154.7270 H      20  MOL20       0.0540
  12822  H11       51.8390   83.1610  158.4340 H      20  MOL20       0.0280
  12823  H11       51.0210   81.6120  158.3510 H      20  MOL20       0.0280
  12824  H11       50.0870   83.0940  158.1510 H      20  MOL20       0.0280
  12825  H11       52.1300   84.4770  152.7570 H      20  MOL20       0.0735
  12826  H11       52.6190   85.0830  154.2020 H      20  MOL20       0.0735
  12827  H11       54.1690   83.2610  152.4100 H      20  MOL20       0.0765
  12828  H11       54.0380   84.9270  151.1390 H      20  MOL20       0.0266
  12829  H11       55.4430   85.4210  151.9550 H      20  MOL20       0.0266
  12830  H11       53.8320   86.1510  152.3640 H      20  MOL20       0.0266
  12831  H11       58.0780   77.2010  153.4620 H      20  MOL20       0.0421
  12832  H11       57.6470   76.7840  151.3960 H      20  MOL20       0.0284
  12833  H11       56.2680   77.8030  151.3150 H      20  MOL20       0.0284
  12834  H11       57.9950   77.8350  149.6730 H      20  MOL20       0.0385
  12835  H11       58.9630   78.9520  150.7030 H      20  MOL20       0.0385
  12836  H11       57.8790   80.0520  152.8500 H      20  MOL20       0.0276
  12837  H11       59.3910   79.3950  153.2030 H      20  MOL20       0.0276
  12838  H11       59.0650   79.8570  155.4550 H      20  MOL20       0.0266
  12839  H11       57.4040   79.3280  155.4470 H      20  MOL20       0.0266
  12840  H11       58.5010   81.7990  154.1840 H      20  MOL20       0.0270
  12841  H11       58.5960   81.8000  155.8670 H      20  MOL20       0.0270
  12842  H11       57.9310   83.5040  154.9370 H      20  MOL20       0.0377
  12843  H11       56.6380   83.2360  155.9530 H      20  MOL20       0.0377
  12844  H11       49.4960  100.7910  157.0560 H      20  MOL20       0.0263
  12845  H11       49.3330  100.7160  155.3060 H      20  MOL20       0.0263
  12846  H11       52.0260  100.8750  156.6870 H      20  MOL20       0.0265
  12847  H11       51.7030  100.7450  154.9540 H      20  MOL20       0.0265
  12848  H11       50.2140   98.7410  156.4870 H      20  MOL20       0.0265
  12849  H11       51.8130   98.5090  156.8530 H      20  MOL20       0.0265
  12850  H11       52.3420   98.6160  154.3460 H      20  MOL20       0.0265
  12851  H11       50.7160   98.8810  153.9920 H      20  MOL20       0.0265
  12852  H11       50.2220   96.5300  153.9790 H      20  MOL20       0.0265
  12853  H11       50.9970   96.2520  155.4130 H      20  MOL20       0.0265
  12854  H11       53.1030   96.9040  153.9580 H      20  MOL20       0.0265
  12855  H11       52.0030   97.0190  152.6270 H      20  MOL20       0.0265
  12856  H11       53.5730   94.8900  153.9080 H      20  MOL20       0.0265
  12857  H11       53.5680   95.5380  152.3280 H      20  MOL20       0.0265
  12858  H11       53.0140   93.4920  151.8840 H      20  MOL20       0.0265
  12859  H11       51.4120   93.6630  152.3860 H      20  MOL20       0.0265
  12860  H11       52.6900   91.7760  153.1930 H      20  MOL20       0.0266
  12861  H11       52.4710   92.8550  154.5960 H      20  MOL20       0.0266
  12862  H11       54.8720   91.7590  154.0680 H      20  MOL20       0.0298
  12863  H11       54.6120   93.2850  154.8390 H      20  MOL20       0.0298
  12864  H11       56.3280   93.4220  153.2390 H      20  MOL20       0.0697
  12865  H11       55.1570   94.4390  152.5510 H      20  MOL20       0.0697
  12866  H11       48.9230  102.8570  156.2520 H      20  MOL20       0.0230
  12867  H11       50.0370  102.7730  154.8640 H      20  MOL20       0.0230
  12868  H11       50.6960  103.0290  156.5130 H      20  MOL20       0.0230
  12869  H11       55.9950   92.3490  148.7570 H      20  MOL20       0.0411
  12870  H11       55.9090   89.7500  150.1950 H      20  MOL20       0.0238
  12871  H11       54.7650   90.4130  149.0940 H      20  MOL20       0.0238
  12872  H11       54.6100   90.8540  150.7350 H      20  MOL20       0.0238
  12873  H11       57.8640   90.6240  150.4300 H      20  MOL20       0.0273
  12874  H11       58.4340   91.9430  149.4420 H      20  MOL20       0.0273
  12875  H11       56.4050   92.2500  146.8740 H      20  MOL20       0.0240
  12876  H11       56.2300   90.9770  145.6380 H      20  MOL20       0.0240
  12877  H11       57.3830   92.2440  145.4370 H      20  MOL20       0.0240
  12878  H11       59.6860   59.4090  158.8820 H      20  MOL20       0.2951
  12879  H11       57.6540   59.3530  157.9810 H      20  MOL20       0.0377
  12880  H11       57.5900   59.0930  159.7180 H      20  MOL20       0.0377
  12881  H11       56.2600   57.1020  159.5230 H      20  MOL20       0.0270
  12882  H11       56.1060   57.0980  157.8830 H      20  MOL20       0.0270
  12883  H11       54.8570   59.0480  157.8940 H      20  MOL20       0.0266
  12884  H11       54.7730   58.6220  159.7060 H      20  MOL20       0.0266
  12885  H11       52.8280   58.4050  159.5590 H      20  MOL20       0.0276
  12886  H11       52.6970   58.5050  157.8120 H      20  MOL20       0.0276
  12887  H11       50.4900   63.0010  158.9760 H      20  MOL20       0.0385
  12888  H11       51.2230   62.6260  160.5460 H      20  MOL20       0.0385
  12889  H11       53.2450   61.9110  159.3760 H      20  MOL20       0.0284
  12890  H11       52.5280   62.0140  157.8100 H      20  MOL20       0.0284
  12891  H11       60.4150   69.8560  149.8310 H      20  MOL20       0.0276
  12892  H11       59.6030   69.1980  148.4920 H      20  MOL20       0.0276
  12893  H11       62.4660   66.6380  149.0350 H      20  MOL20       0.0240
  12894  H11       61.3330   66.8150  147.7240 H      20  MOL20       0.0240
  12895  H11       60.9860   65.7530  149.1560 H      20  MOL20       0.0240
  12896  H11       60.9590   66.8030  153.1980 H      20  MOL20       0.0735
  12897  H11       60.4100   68.3510  153.8430 H      20  MOL20       0.0735
  12898  H11       58.4280   66.5150  152.6280 H      20  MOL20       0.0765
  12899  H11       58.2730   66.2460  155.3610 H      20  MOL20       0.0266
  12900  H12       59.8790   66.9630  155.2840 H      20  MOL20       0.0266
  12901  H12       59.5910   65.4000  154.5320 H      20  MOL20       0.0266
  12902  H12       57.0200   71.8510  156.6100 H      20  MOL20       0.0421
  12903  H12       58.6140   72.2690  158.8740 H      20  MOL20       0.0284
  12904  H12       57.5260   71.0250  159.4830 H      20  MOL20       0.0284
  12905  H12       56.1800   73.0800  157.8350 H      20  MOL20       0.0385
  12906  H12       57.1680   73.8250  159.0940 H      20  MOL20       0.0385
  12907  H12       59.6300   70.9390  157.5800 H      20  MOL20       0.0276
  12908  H12       59.1900   72.2040  156.4460 H      20  MOL20       0.0276
  12909  H12       59.0290   69.1580  155.9130 H      20  MOL20       0.0266
  12910  H12       60.3110   70.1860  155.4540 H      20  MOL20       0.0266
  12911  H12       58.9480   70.2850  153.4460 H      20  MOL20       0.0270
  12912  H12       58.3710   71.6790  154.3370 H      20  MOL20       0.0270
  12913  H12       56.6110   70.1730  153.3110 H      20  MOL20       0.0377
  12914  H12       56.3240   70.4420  155.0290 H      20  MOL20       0.0377
  12915  H12       52.3460   60.2850  160.2100 H      20  MOL20       0.0412
  12916  H12       48.8960   60.0680  160.8510 H      20  MOL20       0.0341
  12917  H12       49.5030   61.6240  160.2520 H      20  MOL20       0.0341
  12918  H12       50.4840   60.6610  161.4170 H      20  MOL20       0.0341
  12919  H12       60.5520   76.8940  153.7920 H      20  MOL20       0.0540
  12920  H12       61.2840   78.5600  154.0670 H      20  MOL20       0.0540
  12921  H12       62.8020   79.3560  152.0080 H      20  MOL20       0.0280
  12922  H12       61.2280   79.8630  151.3610 H      20  MOL20       0.0280
  12923  H12       62.3010   78.8310  150.3930 H      20  MOL20       0.0280
  12924  H12       59.2080   75.3810  149.9620 H      20  MOL20       0.0735
  12925  H12       60.4740   74.2240  150.2430 H      20  MOL20       0.0735
  12926  H12       57.8630   74.1040  150.3550 H      20  MOL20       0.0765
  12927  H12       57.4970   71.8490  151.2410 H      20  MOL20       0.0266
  12928  H12       58.8640   71.9870  152.2110 H      20  MOL20       0.0266
  12929  H12       58.9950   71.8720  150.3930 H      20  MOL20       0.0266
  12930  H12       53.4240   73.7670  158.3530 H      20  MOL20       0.0421
  12931  H12       52.4720   75.9960  159.3680 H      20  MOL20       0.0284
  12932  H12       51.7520   74.9590  158.2080 H      20  MOL20       0.0284
  12933  H12       52.6660   77.6760  157.7690 H      20  MOL20       0.0385
  12934  H12       51.0760   77.0850  158.0040 H      20  MOL20       0.0385
  12935  H12       53.9690   75.4470  156.1360 H      20  MOL20       0.0276
  12936  H12       54.4460   73.8160  156.3490 H      20  MOL20       0.0276
  12937  H12       56.5740   75.1160  157.5960 H      20  MOL20       0.0266
  12938  H12       56.0340   76.1850  156.3080 H      20  MOL20       0.0266
  12939  H12       56.2300   73.2580  155.6610 H      20  MOL20       0.0270
  12940  H12       57.7410   74.1410  155.7860 H      20  MOL20       0.0270
  12941  H12       56.7850   75.7740  154.0100 H      20  MOL20       0.0377
  12942  H12       55.3230   74.7790  154.0860 H      20  MOL20       0.0377
  12943  H12       58.3790   56.6000  155.5400 H      20  MOL20       0.0540
  12944  H12       58.8390   58.1600  156.3610 H      20  MOL20       0.0540
  12945  H12       61.2810   56.7850  153.3040 H      20  MOL20       0.0280
  12946  H12       59.6790   57.0650  152.5810 H      20  MOL20       0.0280
  12947  H12       59.8840   55.7830  153.7290 H      20  MOL20       0.0280
  12948  H12       60.6400   61.4350  154.5760 H      20  MOL20       0.0735
  12949  H12       58.8820   61.3670  154.8900 H      20  MOL20       0.0735
  12950  H12       60.5890   61.3760  157.1400 H      20  MOL20       0.0765
  12951  H12       61.1590   63.8000  157.3440 H      20  MOL20       0.0266
  12952  H12       60.4810   64.1950  155.7910 H      20  MOL20       0.0266
  12953  H12       61.8970   63.2030  155.8250 H      20  MOL20       0.0266
  12954  H12       53.3880   66.3480  158.3580 H      20  MOL20       0.0421
  12955  H12       53.9590   68.7550  159.9760 H      20  MOL20       0.0284
  12956  H12       52.5450   68.7340  158.9370 H      20  MOL20       0.0284
  12957  H12       54.3590   68.0430  157.0930 H      20  MOL20       0.0385
  12958  H12       55.4760   68.0550  158.4150 H      20  MOL20       0.0385
  12959  H12       54.7880   65.7410  160.6910 H      20  MOL20       0.0276
  12960  H12       55.5860   67.0620  159.9940 H      20  MOL20       0.0276
  12961  H12       55.1130   65.7870  157.6600 H      20  MOL20       0.0266
  12962  H12       55.0230   64.4010  158.7420 H      20  MOL20       0.0266
  12963  H12       57.3890   65.5140  159.4050 H      20  MOL20       0.0270
  12964  H12       57.2750   66.0080  157.6950 H      20  MOL20       0.0270
  12965  H12       56.6950   63.1280  158.2980 H      20  MOL20       0.0377
  12966  H12       58.2180   63.5800  158.9930 H      20  MOL20       0.0377
  12967  H12       67.2420   66.7900  136.3630 H      20  MOL20       0.0263
  12968  H12       68.0560   67.6360  137.6640 H      20  MOL20       0.0263
  12969  H12       65.8330   68.6440  136.0330 H      20  MOL20       0.0265
  12970  H12       67.0500   69.8130  136.5700 H      20  MOL20       0.0265
  12971  H12       66.8310   69.1050  138.8940 H      20  MOL20       0.0265
  12972  H12       66.0290   67.6300  138.4400 H      20  MOL20       0.0265
  12973  H12       64.1300   68.6340  137.6550 H      20  MOL20       0.0265
  12974  H12       64.9150   70.2600  137.8140 H      20  MOL20       0.0265
  12975  H12       64.8750   70.0940  140.2040 H      20  MOL20       0.0265
  12976  H12       63.9540   68.6320  140.1300 H      20  MOL20       0.0265
  12977  H12       62.1220   69.7720  138.8380 H      20  MOL20       0.0265
  12978  H12       63.1810   71.0380  138.3660 H      20  MOL20       0.0265
  12979  H12       61.2960   71.2100  140.2190 H      20  MOL20       0.0265
  12980  H12       62.5650   72.3580  139.9050 H      20  MOL20       0.0265
  12981  H12       63.7190   70.6520  141.9240 H      20  MOL20       0.0265
  12982  H12       62.0240   70.8030  142.3040 H      20  MOL20       0.0265
  12983  H12       62.3810   73.3160  141.8310 H      20  MOL20       0.0266
  12984  H12       63.9750   72.7780  142.5690 H      20  MOL20       0.0266
  12985  H12       62.3460   71.5010  144.0430 H      20  MOL20       0.0298
  12986  H12       61.1280   72.7140  143.5890 H      20  MOL20       0.0298
  12987  H12       61.9860   74.0090  145.2340 H      20  MOL20       0.0697
  12988  H12       63.6890   73.8110  144.7930 H      20  MOL20       0.0697
  12989  H12       68.8450   67.3430  134.8560 H      20  MOL20       0.0230
  12990  H12       69.5940   66.8990  136.3490 H      20  MOL20       0.0230
  12991  H12       69.6080   68.6060  135.8350 H      20  MOL20       0.0230
  12992  H12       63.4220   70.6960  148.0810 H      20  MOL20       0.0411
  12993  H12       63.8300   68.8850  146.3920 H      20  MOL20       0.0238
  12994  H12       64.5370   70.4210  146.0520 H      20  MOL20       0.0238
  12995  H12       63.1890   70.0450  145.1640 H      20  MOL20       0.0238
  12996  H12       60.9530   69.2430  146.9650 H      20  MOL20       0.0273
  12997  H12       60.7030   70.7840  147.7940 H      20  MOL20       0.0273
  12998  H12       58.8160   68.1150  150.2890 H      20  MOL20       0.0240
  12999  H12       59.1920   66.3950  150.1670 H      20  MOL20       0.0240
  13000  H13       58.9000   67.3380  148.6760 H      20  MOL20       0.0240
  13001  O        136.6070  182.2940   87.2420 O.3     1  MOL1       -0.4105
  13002  H        137.2980  182.9830   87.1550 H       1  MOL1        0.2052
  13003  H        137.0510  181.4070   87.2300 H       1  MOL1        0.2052
  13004  O         97.7180  129.7090  192.4520 O.3     2  MOL2       -0.4105
  13005  H         97.5910  129.5300  193.4070 H       2  MOL2        0.2052
  13006  H         98.6920  129.7990  192.2800 H       2  MOL2        0.2052
  13007  O        169.3180   75.0620   39.9780 O.3     3  MOL3       -0.4105
  13008  H        168.6060   75.7280   40.0770 H       3  MOL3        0.2052
  13009  H        168.9030   74.2020   39.7090 H       3  MOL3        0.2052
  13010  O        179.8910  100.2130  174.9510 O.3     4  MOL4       -0.4105
  13011  H        179.4000   99.7380  175.6530 H       4  MOL4        0.2052
  13012  H        180.5280  100.8380  175.3860 H       4  MOL4        0.2052
  13013  O          6.4300   69.1330  175.4480 O.3     5  MOL5       -0.4105
  13014  H          6.1390   68.2070  175.3150 H       5  MOL5        0.2052
  13015  H          7.2180   69.2970  174.8660 H       5  MOL5        0.2052
  13016  O        130.1040   86.5510   52.0730 O.3     6  MOL6       -0.4105
  13017  H        130.4610   87.4550   51.9480 H       6  MOL6        0.2052
  13018  H        129.2280   86.6230   52.5330 H       6  MOL6        0.2052
  13019  O        101.2010  184.3260  172.2630 O.3     7  MOL7       -0.4105
  13020  H        100.2310  184.4080  172.1440 H       7  MOL7        0.2052
  13021  H        101.4090  183.3770  172.4630 H       7  MOL7        0.2052
  13022  O         94.0880   93.1150  261.2930 O.3     8  MOL8       -0.4105
  13023  H         93.1910   92.7200  261.2760 H       8  MOL8        0.2052
  13024  H         93.9920   94.1030  261.2830 H       8  MOL8        0.2052
  13025  O        154.4900   97.6920  128.9490 O.3     9  MOL9       -0.4105
  13026  H        154.1150   98.5570  128.6840 H       9  MOL9        0.2052
  13027  H        155.4030   97.6190  128.5680 H       9  MOL9        0.2052
  13028  O         29.7550   89.2890  138.2830 O.3    10  MOL10      -0.4105
  13029  H         28.9730   89.5500  138.8130 H      10  MOL10       0.2052
  13030  H         30.2840   90.1050  138.0870 H      10  MOL10       0.2052
  13031  O          4.2440   71.5850  176.3030 O.3    11  MOL11      -0.4105
  13032  H          3.9580   70.6520  176.2100 H      11  MOL11       0.2052
  13033  H          4.9270   71.7720  175.6090 H      11  MOL11       0.2052
  13034  O        187.5880  179.7990  187.4180 O.3    12  MOL12      -0.4105
  13035  H        187.1220  180.6410  187.2320 H      12  MOL12       0.2052
  13036  H        186.9240  179.1460  187.7610 H      12  MOL12       0.2052
  13037  O         20.4280   74.4130  237.1370 O.3    13  MOL13      -0.4105
  13038  H         20.5090   73.4390  237.0620 H      13  MOL13       0.2052
  13039  H         19.4640   74.6390  237.2150 H      13  MOL13       0.2052
  13040  O        146.5520   24.2130  157.9210 O.3    14  MOL14      -0.4105
  13041  H        147.0180   24.1230  158.7790 H      14  MOL14       0.2052
  13042  H        147.2030   24.0360  157.1940 H      14  MOL14       0.2052
  13043  O        100.5960  129.2600  194.8340 O.3    15  MOL15      -0.4105
  13044  H        100.2360  129.2240  195.7450 H      15  MOL15       0.2052
  13045  H        101.5850  129.1930  194.8880 H      15  MOL15       0.2052
  13046  O         18.4460  171.7360   53.6970 O.3    16  MOL16      -0.4105
  13047  H         19.0170  172.5310   53.6550 H      16  MOL16       0.2052
  13048  H         17.8170  171.8450   54.4570 H      16  MOL16       0.2052
  13049  O        120.0310   69.1230  262.0670 O.3    17  MOL17      -0.4105
  13050  H        120.5310   69.8910  261.7190 H      17  MOL17       0.2052
  13051  H        119.0620   69.3230  261.9900 H      17  MOL17       0.2052
  13052  O        120.1780  157.4420  136.5380 O.3    18  MOL18      -0.4105
  13053  H        119.9120  156.5010  136.4730 H      18  MOL18       0.2052
  13054  H        119.3550  157.9970  136.5480 H      18  MOL18       0.2052
  13055  O         57.9930   92.0700  257.1440 O.3    19  MOL19      -0.4105
  13056  H         57.3320   91.5030  257.5940 H      19  MOL19       0.2052
  13057  H         58.8940   91.6900  257.3130 H      19  MOL19       0.2052
  13058  O        180.4120  153.6920  248.6530 O.3    20  MOL20      -0.4105
  13059  H        180.6060  152.8070  249.0250 H      20  MOL20       0.2052
  13060  H        180.8950  153.7790  247.7900 H      20  MOL20       0.2052
  13061  O        188.1580   94.9470  142.7670 O.3    21  MOL21      -0.4105
  13062  H        188.4990   94.0430  142.9320 H      21  MOL21       0.2052
  13063  H        188.8630   95.5960  143.0260 H      21  MOL21       0.2052
  13064  O         48.7280  182.2590   20.8070 O.3    22  MOL22      -0.4105
  13065  H         48.0780  181.8250   21.3990 H      22  MOL22       0.2052
  13066  H         49.1120  181.5670   20.2080 H      22  MOL22       0.2052
  13067  O        120.7590   73.1110  223.8220 O.3    23  MOL23      -0.4105
  13068  H        120.3400   72.2420  223.6500 H      23  MOL23       0.2052
  13069  H        121.2970   73.0370  224.6530 H      23  MOL23       0.2052
  13070  O        120.5670  157.5830  161.4580 O.3    24  MOL24      -0.4105
  13071  H        120.9460  157.3710  160.5800 H      24  MOL24       0.2052
  13072  H        120.6570  156.7830  162.0380 H      24  MOL24       0.2052
  13073  O        185.6450  176.6190  189.9250 O.3    25  MOL25      -0.4105
  13074  H        185.4980  177.5870  189.8910 H      25  MOL25       0.2052
  13075  H        184.7600  176.1720  189.9720 H      25  MOL25       0.2052
  13076  O        148.5970   30.0790  260.9770 O.3    26  MOL26      -0.4105
  13077  H        147.7830   30.1180  260.4320 H      26  MOL26       0.2052
  13078  H        149.2250   30.7730  260.6460 H      26  MOL26       0.2052
  13079  O        142.7390   78.7460  191.0180 O.3    27  MOL27      -0.4105
  13080  H        142.8930   78.6880  190.0510 H      27  MOL27       0.2052
  13081  H        143.6170   78.6830  191.4760 H      27  MOL27       0.2052
  13082  O        185.6170  154.4560  253.2730 O.3    28  MOL28      -0.4105
  13083  H        184.9390  153.9560  253.7740 H      28  MOL28       0.2052
  13084  H        186.2350  153.8040  252.8520 H      28  MOL28       0.2052
  13085  O        159.8010   75.8780  167.8310 O.3    29  MOL29      -0.4105
  13086  H        160.7620   75.7970  167.6590 H      29  MOL29       0.2052
  13087  H        159.5980   75.4130  168.6840 H      29  MOL29       0.2052
  13088  O        109.2830  141.0450  196.9010 O.3    30  MOL30      -0.4105
  13089  H        109.3010  140.2290  196.3590 H      30  MOL30       0.2052
  13090  H        110.2180  141.3410  197.0490 H      30  MOL30       0.2052
  13091  O        169.2510  145.3020  274.9110 O.3    31  MOL31      -0.4105
  13092  H        168.9720  144.6870  275.6210 H      31  MOL31       0.2052
  13093  H        169.7530  146.0500  275.3280 H      31  MOL31       0.2052
  13094  O        106.1070   82.4780   68.4750 O.3    32  MOL32      -0.4105
  13095  H        106.9990   82.8010   68.7200 H      32  MOL32       0.2052
  13096  H        105.4850   83.2510   68.4740 H      32  MOL32       0.2052
  13097  O        161.1080   77.1790  156.4950 O.3    33  MOL33      -0.4105
  13098  H        161.2630   77.5530  157.3880 H      33  MOL33       0.2052
  13099  H        160.6200   77.8540  155.9560 H      33  MOL33       0.2052
  13100  O         59.8980   27.0650  172.3120 O.3    34  MOL34      -0.4105
  13101  H         60.6590   26.5480  171.9750 H      34  MOL34       0.2052
  13102  H         59.8910   26.9990  173.3020 H      34  MOL34       0.2052
  13103  O        187.0990  132.2230  124.9580 O.3    35  MOL35      -0.4105
  13104  H        187.7850  132.2850  125.6550 H      35  MOL35       0.2052
  13105  H        187.4780  132.5850  124.1150 H      35  MOL35       0.2052
  13106  O        140.0160   79.2180   24.6280 O.3    36  MOL36      -0.4105
  13107  H        140.5870   79.9440   24.2990 H      36  MOL36       0.2052
  13108  H        139.1000   79.3580   24.2720 H      36  MOL36       0.2052
  13109  O        132.3260  136.7640  281.2160 O.3    37  MOL37      -0.4105
  13110  H        132.5280  137.5970  280.7420 H      37  MOL37       0.2052
  13111  H        131.5330  136.9190  281.7930 H      37  MOL37       0.2052
  13112  O        116.8350   74.8660   19.7360 O.3    38  MOL38      -0.4105
  13113  H        116.9070   74.2110   19.0110 H      38  MOL38       0.2052
  13114  H        116.9320   75.7730   19.3460 H      38  MOL38       0.2052
  13115  O         47.6260  141.6670  188.6110 O.3    39  MOL39      -0.4105
  13116  H         48.4820  141.6660  189.0890 H      39  MOL39       0.2052
  13117  H         47.4520  142.5900  188.2890 H      39  MOL39       0.2052
  13118  O         16.7410   30.6020  215.8480 O.3    40  MOL40      -0.4105
  13119  H         17.5240   31.1050  216.1570 H      40  MOL40       0.2052
  13120  H         17.0520   29.7240  215.5050 H      40  MOL40       0.2052
  13121  O         81.6470   71.6850   69.1550 O.3    41  MOL41      -0.4105
  13122  H         81.3520   72.4120   69.7410 H      41  MOL41       0.2052
  13123  H         82.5220   71.9390   68.7600 H      41  MOL41       0.2052
  13124  O         10.5750  166.2380  124.5450 O.3    42  MOL42      -0.4105
  13125  H          9.9000  166.0720  125.2360 H      42  MOL42       0.2052
  13126  H         11.4130  166.5240  124.9910 H      42  MOL42       0.2052
  13127  O         75.4530    6.9420   47.1770 O.3    43  MOL43      -0.4105
  13128  H         74.7340    7.6090   47.1740 H      43  MOL43       0.2052
  13129  H         75.0390    6.0410   47.1540 H      43  MOL43       0.2052
  13130  O          5.8950   70.0310  172.2760 O.3    44  MOL44      -0.4105
  13131  H          5.5950   69.1020  172.1930 H      44  MOL44       0.2052
  13132  H          6.7800   70.1120  171.8330 H      44  MOL44       0.2052
  13133  O         71.0670   50.2200   27.3710 O.3    45  MOL45      -0.4105
  13134  H         71.8520   50.6820   27.7330 H      45  MOL45       0.2052
  13135  H         70.2840   50.8240   27.4560 H      45  MOL45       0.2052
  13136  O        126.9850  120.5600  225.0580 O.3    46  MOL46      -0.4105
  13137  H        126.5780  119.6770  225.1830 H      46  MOL46       0.2052
  13138  H        126.2560  121.2240  224.9470 H      46  MOL46       0.2052
  13139  O        140.4480   97.1240  195.7390 O.3    47  MOL47      -0.4105
  13140  H        139.9390   96.9250  196.5530 H      47  MOL47       0.2052
  13141  H        141.3700   96.7780  195.8570 H      47  MOL47       0.2052
  13142  O        193.0090  177.8560  135.2040 O.3    48  MOL48      -0.4105
  13143  H        193.0510  178.8340  135.2570 H      48  MOL48       0.2052
  13144  H        192.1530  177.5590  135.6070 H      48  MOL48       0.2052
  13145  O         29.3420   11.8400   16.3500 O.3    49  MOL49      -0.4105
  13146  H         29.9850   11.1180   16.1890 H      49  MOL49       0.2052
  13147  H         28.7240   11.5510   17.0710 H      49  MOL49       0.2052
  13148  O        129.4950  115.3180   60.1050 O.3    50  MOL50      -0.4105
  13149  H        129.1970  114.4130   59.8770 H      50  MOL50       0.2052
  13150  H        128.8100  115.7310   60.6930 H      50  MOL50       0.2052
  13151  O        181.5320   71.1130  219.1190 O.3    51  MOL51      -0.4105
  13152  H        181.8350   71.5430  218.2920 H      51  MOL51       0.2052
  13153  H        182.1710   70.3900  219.3450 H      51  MOL51       0.2052
  13154  O        103.1250   34.8500   38.4770 O.3    52  MOL52      -0.4105
  13155  H        103.9010   34.2530   38.5380 H      52  MOL52       0.2052
  13156  H        102.6730   34.6830   37.6100 H      52  MOL52       0.2052
  13157  O        140.2120  176.3530   31.6190 O.3    53  MOL53      -0.4105
  13158  H        140.8380  176.9900   32.0220 H      53  MOL53       0.2052
  13159  H        140.7340  175.7110   31.0710 H      53  MOL53       0.2052
  13160  O        129.6350   90.8690   54.4650 O.3    54  MOL54      -0.4105
  13161  H        130.0750   91.7440   54.4320 H      54  MOL54       0.2052
  13162  H        128.6630   91.0150   54.5970 H      54  MOL54       0.2052
  13163  O          8.3570   67.4280  172.7870 O.3    55  MOL55      -0.4105
  13164  H          7.6850   66.7150  172.7980 H      55  MOL55       0.2052
  13165  H          9.1520   67.0980  172.2930 H      55  MOL55       0.2052
  13166  O        125.7090   73.9140  219.9910 O.3    56  MOL56      -0.4105
  13167  H        125.0230   73.4160  219.4990 H      56  MOL56       0.2052
  13168  H        125.9270   73.4090  220.8170 H      56  MOL56       0.2052
  13169  O        179.8940   67.9240  215.8580 O.3    57  MOL57      -0.4105
  13170  H        180.3090   68.3100  215.0580 H      57  MOL57       0.2052
  13171  H        180.4460   67.1540  216.1540 H      57  MOL57       0.2052
  13172  O         94.5450   63.1740  295.9190 O.3    58  MOL58      -0.4105
  13173  H         93.6800   63.5850  295.7140 H      58  MOL58       0.2052
  13174  H         94.4860   62.2050  295.7110 H      58  MOL58       0.2052
  13175  O         17.4120  156.0100   95.4040 O.3    59  MOL59      -0.4105
  13176  H         17.4390  156.2390   94.4520 H      59  MOL59       0.2052
  13177  H         18.3380  156.0430   95.7580 H      59  MOL59       0.2052
  13178  O         57.6090   38.9390  248.9510 O.3    60  MOL60      -0.4105
  13179  H         58.3900   38.9460  248.3600 H      60  MOL60       0.2052
  13180  H         57.3030   39.8750  249.0740 H      60  MOL60       0.2052
  13181  O        142.8690   10.4950  108.1860 O.3    61  MOL61      -0.4105
  13182  H        143.3420   11.3520  108.2350 H      61  MOL61       0.2052
  13183  H        143.5250    9.7910  107.9430 H      61  MOL61       0.2052
  13184  O        160.6970   10.4820  191.9050 O.3    62  MOL62      -0.4105
  13185  H        161.6110   10.1310  191.9590 H      62  MOL62       0.2052
  13186  H        160.6370   11.2840  192.4870 H      62  MOL62       0.2052
  13187  O        145.6080  103.4010  284.6340 O.3    63  MOL63      -0.4105
  13188  H        144.8510  103.7650  284.1290 H      63  MOL63       0.2052
  13189  H        146.0290  104.1430  285.1410 H      63  MOL63       0.2052
  13190  O         29.1150   84.3930  139.6610 O.3    64  MOL64      -0.4105
  13191  H         28.6610   85.0720  140.2040 H      64  MOL64       0.2052
  13192  H         29.9550   84.7870  139.3100 H      64  MOL64       0.2052
  13193  O        154.0950   77.0820   66.6710 O.3    65  MOL65      -0.4105
  13194  H        153.5810   76.3720   67.1090 H      65  MOL65       0.2052
  13195  H        153.4550   77.7360   66.2860 H      65  MOL65       0.2052
  13196  O        152.6620  143.5540  264.2760 O.3    66  MOL66      -0.4105
  13197  H        152.8740  142.9960  265.0530 H      66  MOL66       0.2052
  13198  H        152.4490  144.4680  264.6000 H      66  MOL66       0.2052
  13199  O         99.6280  155.8940  251.2580 O.3    67  MOL67      -0.4105
  13200  H         99.7950  156.8530  251.1430 H      67  MOL67       0.2052
  13201  H         98.8520  155.6440  250.6930 H      67  MOL67       0.2052
  13202  O        146.4820  144.4410  260.8030 O.3    68  MOL68      -0.4105
  13203  H        146.3740  143.8570  261.5830 H      68  MOL68       0.2052
  13204  H        146.4710  145.3820  261.1160 H      68  MOL68       0.2052
  13205  O         66.5140  112.8940   70.0200 O.3    69  MOL69      -0.4105
  13206  H         67.1940  112.4150   69.5010 H      69  MOL69       0.2052
  13207  H         66.3100  112.3610   70.8310 H      69  MOL69       0.2052
  13208  O        152.0190  191.6780  140.2890 O.3    70  MOL70      -0.4105
  13209  H        152.1060  191.8130  141.2560 H      70  MOL70       0.2052
  13210  H        151.2740  192.2460  139.9610 H      70  MOL70       0.2052
  13211  O        140.3470  176.1020   35.2170 O.3    71  MOL71      -0.4105
  13212  H        140.7370  176.8780   35.6710 H      71  MOL71       0.2052
  13213  H        141.0750  175.6230   34.7430 H      71  MOL71       0.2052
  13214  O        194.4730   80.5280  248.8690 O.3    72  MOL72      -0.4105
  13215  H        193.5550   80.2270  248.7010 H      72  MOL72       0.2052
  13216  H        194.9680   79.7860  249.3040 H      72  MOL72       0.2052
  13217  O        124.0810  166.7120  209.2960 O.3    73  MOL73      -0.4105
  13218  H        123.7400  166.0500  209.9330 H      73  MOL73       0.2052
  13219  H        123.3740  166.8860  208.6220 H      73  MOL73       0.2052
  13220  O         66.3000  174.5440  182.6930 O.3    74  MOL74      -0.4105
  13221  H         66.2310  175.5210  182.7320 H      74  MOL74       0.2052
  13222  H         67.2620  174.3010  182.6800 H      74  MOL74       0.2052
  13223  O         10.8920  163.7400  262.3820 O.3    75  MOL75      -0.4105
  13224  H         11.3490  163.0300  262.8790 H      75  MOL75       0.2052
  13225  H         10.0690  163.3590  261.9810 H      75  MOL75       0.2052
  13226  O        133.6610   86.0340   53.0230 O.3    76  MOL76      -0.4105
  13227  H        134.1350   86.8810   52.8860 H      76  MOL76       0.2052
  13228  H        132.8030   86.2290   53.4820 H      76  MOL76       0.2052
  13229  O         23.5900  127.0500   24.2740 O.3    77  MOL77      -0.4105
  13230  H         22.7260  126.7410   23.9300 H      77  MOL77       0.2052
  13231  H         24.0570  126.2740   24.6790 H      77  MOL77       0.2052
  13232  O        136.8720    6.3730  278.9670 O.3    78  MOL78      -0.4105
  13233  H        135.9070    6.3390  279.1360 H      78  MOL78       0.2052
  13234  H        137.3190    5.7450  279.5920 H      78  MOL78       0.2052
  13235  O        175.3770  158.4710   87.0000 O.3    79  MOL79      -0.4105
  13236  H        176.1900  157.9520   87.1750 H      79  MOL79       0.2052
  13237  H        174.8070  157.9530   86.3740 H      79  MOL79       0.2052
  13238  O         69.2610  153.8210  123.4390 O.3    80  MOL80      -0.4105
  13239  H         68.4490  154.1780  123.8560 H      80  MOL80       0.2052
  13240  H         69.0580  152.9160  123.0880 H      80  MOL80       0.2052
  13241  O        189.7550  130.4070  124.3920 O.3    81  MOL81      -0.4105
  13242  H        190.5070  130.4600  125.0180 H      81  MOL81       0.2052
  13243  H        190.0160  130.8700  123.5540 H      81  MOL81       0.2052
  13244  O         18.5600  139.5990   59.4100 O.3    82  MOL82      -0.4105
  13245  H         18.3010  140.2860   60.0600 H      82  MOL82       0.2052
  13246  H         18.1490  139.8280   58.5360 H      82  MOL82       0.2052
  13247  O        106.2860  139.2540  197.8850 O.3    83  MOL83      -0.4105
  13248  H        106.8000  138.7860  197.1930 H      83  MOL83       0.2052
  13249  H        106.9090  139.8340  198.3940 H      83  MOL83       0.2052
  13250  O         45.3130    8.2660  224.0690 O.3    84  MOL84      -0.4105
  13251  H         45.7300    8.3820  223.1900 H      84  MOL84       0.2052
  13252  H         44.8120    7.4090  224.0640 H      84  MOL84       0.2052
  13253  O         52.1820  174.3420  157.6770 O.3    85  MOL85      -0.4105
  13254  H         52.4290  173.7050  156.9740 H      85  MOL85       0.2052
  13255  H         52.3200  175.2600  157.3260 H      85  MOL85       0.2052
  13256  O        111.2740   35.3010   13.0930 O.3    86  MOL86      -0.4105
  13257  H        110.5360   35.5020   13.7060 H      86  MOL86       0.2052
  13258  H        111.2080   34.3460   12.8300 H      86  MOL86       0.2052
  13259  O         96.9560   93.1040  259.4710 O.3    87  MOL87      -0.4105
  13260  H         96.3360   92.3450  259.4580 H      87  MOL87       0.2052
  13261  H         96.4230   93.9410  259.4560 H      87  MOL87       0.2052
  13262  O        188.5860  175.6330  182.7250 O.3    88  MOL88      -0.4105
  13263  H        187.8250  176.2040  182.4890 H      88  MOL88       0.2052
  13264  H        188.2670  174.9360  183.3550 H      88  MOL88       0.2052
  13265  O         55.2090  118.1040   15.9100 O.3    89  MOL89      -0.4105
  13266  H         56.1050  117.7090   15.9410 H      89  MOL89       0.2052
  13267  H         54.8150  117.9110   15.0200 H      89  MOL89       0.2052
  13268  O         84.3190  187.0530  229.5140 O.3    90  MOL90      -0.4105
  13269  H         83.7400  187.8340  229.6390 H      90  MOL90       0.2052
  13270  H         83.9870  186.3240  230.1010 H      90  MOL90       0.2052
  13271  O        142.2460   81.8210  192.0080 O.3    91  MOL91      -0.4105
  13272  H        142.3250   81.7220  191.0360 H      91  MOL91       0.2052
  13273  H        143.1580   81.7940  192.3980 H      91  MOL91       0.2052
  13274  O         54.6430  173.5000  159.5600 O.3    92  MOL92      -0.4105
  13275  H         54.7740  172.8550  158.8340 H      92  MOL92       0.2052
  13276  H         54.7710  174.4130  159.1920 H      92  MOL92       0.2052
  13277  O        113.9780   67.0100  259.3670 O.3    93  MOL93      -0.4105
  13278  H        113.5490   67.3680  258.5620 H      93  MOL93       0.2052
  13279  H        114.4460   67.7550  259.8260 H      93  MOL93       0.2052
  13280  O        152.4190  148.8750  257.8980 O.3    94  MOL94      -0.4105
  13281  H        152.8350  148.5960  258.7410 H      94  MOL94       0.2052
  13282  H        151.8930  149.6980  258.0690 H      94  MOL94       0.2052
  13283  O        166.3650   53.8700  208.4380 O.3    95  MOL95      -0.4105
  13284  H        166.9940   53.2840  207.9670 H      95  MOL95       0.2052
  13285  H        165.7990   54.3250  207.7610 H      95  MOL95       0.2052
  13286  O         17.5800  180.7940  105.7190 O.3    96  MOL96      -0.4105
  13287  H         16.9140  181.3430  106.1840 H      96  MOL96       0.2052
  13288  H         17.3040  180.7070  104.7700 H      96  MOL96       0.2052
  13289  O         59.5310   50.0000   36.3680 O.3    97  MOL97      -0.4105
  13290  H         59.5360   49.3300   35.6530 H      97  MOL97       0.2052
  13291  H         58.6180   50.3840   36.4280 H      97  MOL97       0.2052
  13292  O        154.4990   75.1380    2.0880 O.3    98  MOL98      -0.4105
  13293  H        155.2810   74.7320    1.6570 H      98  MOL98       0.2052
  13294  H        153.7010   74.9370    1.5350 H      98  MOL98       0.2052
  13295  O        190.9240  179.0290  188.4850 O.3    99  MOL99      -0.4105
  13296  H        190.4500  179.8700  188.3160 H      99  MOL99       0.2052
  13297  H        190.2630  178.3550  188.7880 H      99  MOL99       0.2052
  13298  O         18.1670   61.2480   65.5640 O.3   100  MOL100     -0.4105
  13299  H         17.4220   61.8850   65.5880 H     100  MOL100      0.2052
  13300  H         18.9710   61.6960   65.9350 H     100  MOL100      0.2052
  13301  O        117.7380   67.7210  259.7830 O.3   101  MOL101     -0.4105
  13302  H        117.4170   67.1130  259.0840 H     101  MOL101      0.2052
  13303  H        117.4830   68.6460  259.5310 H     101  MOL101      0.2052
  13304  O         71.9430  105.6010   72.4030 O.3   102  MOL102     -0.4105
  13305  H         72.6690  105.1560   71.9170 H     102  MOL102      0.2052
  13306  H         71.7070  105.0420   73.1880 H     102  MOL102      0.2052
  13307  O        170.3340  193.0040  263.6270 O.3   103  MOL103     -0.4105
  13308  H        171.1140  192.5010  263.3110 H     103  MOL103      0.2052
  13309  H        170.1610  193.7420  262.9880 H     103  MOL103      0.2052
  13310  O         33.8760  158.7810  229.1930 O.3   104  MOL104     -0.4105
  13311  H         34.5600  158.7530  229.8950 H     104  MOL104      0.2052
  13312  H         34.2040  159.3700  228.4640 H     104  MOL104      0.2052
  13313  O        111.3250  170.2930  169.7110 O.3   105  MOL105     -0.4105
  13314  H        112.2920  170.1420  169.7650 H     105  MOL105      0.2052
  13315  H        110.8650  169.4740  170.0300 H     105  MOL105      0.2052
  13316  O        141.7620  179.0780   89.1380 O.3   106  MOL106     -0.4105
  13317  H        141.1280  179.8170   89.0260 H     106  MOL106      0.2052
  13318  H        142.6690  179.4100   88.9110 H     106  MOL106      0.2052
  13319  O        142.5210  182.2550   87.9730 O.3   107  MOL107     -0.4105
  13320  H        141.8930  182.9990   87.8550 H     107  MOL107      0.2052
  13321  H        143.4240  182.5660   87.7040 H     107  MOL107      0.2052
  13322  O         70.2810   50.0690   24.0510 O.3   108  MOL108     -0.4105
  13323  H         71.1980   49.9720   24.3840 H     108  MOL108      0.2052
  13324  H         69.9500   50.9670   24.3120 H     108  MOL108      0.2052
  13325  O        139.6880   79.8510   35.4790 O.3   109  MOL109     -0.4105
  13326  H        139.2500   80.6460   35.8480 H     109  MOL109      0.2052
  13327  H        140.6600   80.0360   35.4090 H     109  MOL109      0.2052
  13328  O        148.4080  188.5110  135.2970 O.3   110  MOL110     -0.4105
  13329  H        148.4390  188.4450  136.2740 H     110  MOL110      0.2052
  13330  H        147.7160  189.1790  135.0520 H     110  MOL110      0.2052
  13331  O        143.7450   46.1500  242.3150 O.3   111  MOL111     -0.4105
  13332  H        144.3730   46.8320  242.6350 H     111  MOL111      0.2052
  13333  H        144.0750   45.2620  242.6100 H     111  MOL111      0.2052
  13334  O         12.5610  109.8190  251.9340 O.3   112  MOL112     -0.4105
  13335  H         11.7780  109.8720  252.5210 H     112  MOL112      0.2052
  13336  H         12.6290  110.6710  251.4290 H     112  MOL112      0.2052
  13337  O         19.9350  105.0530  254.4140 O.3   113  MOL113     -0.4105
  13338  H         19.3590  104.9690  255.2020 H     113  MOL113      0.2052
  13339  H         19.5950  105.8030  253.8600 H     113  MOL113      0.2052
  13340  O         57.7420   79.2840  263.8770 O.3   114  MOL114     -0.4105
  13341  H         57.4160   78.3700  264.0140 H     114  MOL114      0.2052
  13342  H         58.7330   79.2680  263.9100 H     114  MOL114      0.2052
  13343  O         27.6000   86.4200  137.7430 O.3   115  MOL115     -0.4105
  13344  H         27.2080   87.1890  138.2080 H     115  MOL115      0.2052
  13345  H         28.5070   86.6740  137.4320 H     115  MOL115      0.2052
  13346  O          9.1080  161.4130  264.0550 O.3   116  MOL116     -0.4105
  13347  H          9.5420  160.7050  264.5750 H     116  MOL116      0.2052
  13348  H          8.2870  161.0360  263.6430 H     116  MOL116      0.2052
  13349  O         99.0320  114.3560  255.8890 O.3   117  MOL117     -0.4105
  13350  H         98.7160  113.4980  256.2430 H     117  MOL117      0.2052
  13351  H         98.6870  114.4560  254.9640 H     117  MOL117      0.2052
  13352  O         42.2210   82.4960   94.5860 O.3   118  MOL118     -0.4105
  13353  H         41.7540   81.6340   94.5830 H     118  MOL118      0.2052
  13354  H         43.1980   82.3190   94.5650 H     118  MOL118      0.2052
  13355  O        136.5750  103.2770   65.6470 O.3   119  MOL119     -0.4105
  13356  H        136.4920  102.3050   65.5490 H     119  MOL119      0.2052
  13357  H        137.4670  103.5480   65.3100 H     119  MOL119      0.2052
  13358  O        172.8680  194.4490  261.8500 O.3   120  MOL120     -0.4105
  13359  H        173.6790  194.0880  261.4340 H     120  MOL120      0.2052
  13360  H        172.5090  195.1630  261.2620 H     120  MOL120      0.2052
  13361  O        190.5190  115.9810  207.6310 O.3   121  MOL121     -0.4105
  13362  H        190.3990  116.9530  207.6300 H     121  MOL121      0.2052
  13363  H        189.6220  115.5570  207.6270 H     121  MOL121      0.2052
  13364  O        164.7610  169.0240  286.5360 O.3   122  MOL122     -0.4105
  13365  H        165.5070  168.4090  286.6970 H     122  MOL122      0.2052
  13366  H        165.1250  169.9450  286.4780 H     122  MOL122      0.2052
  13367  O         55.9310   42.0290  247.4990 O.3   123  MOL123     -0.4105
  13368  H         56.7550   42.1450  246.9820 H     123  MOL123      0.2052
  13369  H         55.5120   42.9200  247.6200 H     123  MOL123      0.2052
  13370  O         22.3680   76.0870  239.6350 O.3   124  MOL124     -0.4105
  13371  H         22.5370   75.1240  239.5550 H     124  MOL124      0.2052
  13372  H         21.3890   76.2250  239.7120 H     124  MOL124      0.2052
  13373  O        155.9640   98.5030   49.4980 O.3   125  MOL125     -0.4105
  13374  H        156.4910   98.5450   48.6720 H     125  MOL125      0.2052
  13375  H        156.4620   98.9850   50.2080 H     125  MOL125      0.2052
  13376  O         77.8630  143.0140   44.2620 O.3   126  MOL126     -0.4105
  13377  H         77.5760  143.0870   43.3280 H     126  MOL126      0.2052
  13378  H         77.2530  143.5640   44.8180 H     126  MOL126      0.2052
  13379  O         15.8890  151.6960  283.9460 O.3   127  MOL127     -0.4105
  13380  H         15.2140  152.4070  283.9630 H     127  MOL127      0.2052
  13381  H         16.7860  152.1200  283.9470 H     127  MOL127      0.2052
  13382  O         44.5510  188.7560   81.5630 O.3   128  MOL128     -0.4105
  13383  H         44.8480  187.9220   81.9830 H     128  MOL128      0.2052
  13384  H         43.6340  188.6170   81.2110 H     128  MOL128      0.2052
  13385  O         71.7330  109.7500   74.1370 O.3   129  MOL129     -0.4105
  13386  H         72.2470  108.9320   73.9660 H     129  MOL129      0.2052
  13387  H         71.3820  109.7070   75.0640 H     129  MOL129      0.2052
  13388  O         38.0590   76.3120   53.1010 O.3   130  MOL130     -0.4105
  13389  H         38.5140   76.9890   53.6450 H     130  MOL130      0.2052
  13390  H         38.3140   76.4520   52.1530 H     130  MOL130      0.2052
  13391  O        150.0260   53.7690  131.6460 O.3   131  MOL131     -0.4105
  13392  H        150.2270   53.0420  131.0210 H     131  MOL131      0.2052
  13393  H        150.7420   54.4510  131.5720 H     131  MOL131      0.2052
  13394  O        153.9180   81.0400    4.8050 O.3   132  MOL132     -0.4105
  13395  H        154.8580   80.8560    4.5990 H     132  MOL132      0.2052
  13396  H        153.3580   80.6130    4.1060 H     132  MOL132      0.2052
  13397  O        164.1600    8.9670  198.8990 O.3   133  MOL133     -0.4105
  13398  H        164.9700    8.4220  198.9830 H     133  MOL133      0.2052
  13399  H        164.2750    9.7810  199.4530 H     133  MOL133      0.2052
  13400  O        180.5960  101.9650  185.9390 O.3   134  MOL134     -0.4105
  13401  H        180.0930  101.4210  185.2970 H     134  MOL134      0.2052
  13402  H        180.6220  102.8980  185.6020 H     134  MOL134      0.2052
  13403  O         72.2920   95.0500  178.8980 O.3   135  MOL135     -0.4105
  13404  H         71.8900   94.3620  179.4690 H     135  MOL135      0.2052
  13405  H         72.1060   94.8140  177.9520 H     135  MOL135      0.2052
  13406  O         91.5440   97.5770  255.7740 O.3   136  MOL136     -0.4105
  13407  H         92.4390   97.1790  255.7890 H     136  MOL136      0.2052
  13408  H         90.8780   96.8420  255.7300 H     136  MOL136      0.2052
  13409  O         45.0270   75.1360  292.9590 O.3   137  MOL137     -0.4105
  13410  H         44.2840   75.7750  292.9540 H     137  MOL137      0.2052
  13411  H         45.8740   75.6460  293.0440 H     137  MOL137      0.2052
  13412  O         62.8840  191.5380  242.7240 O.3   138  MOL138     -0.4105
  13413  H         62.0490  191.1810  242.3550 H     138  MOL138      0.2052
  13414  H         62.7280  192.4820  242.9880 H     138  MOL138      0.2052
  13415  O         32.0040  155.8820  229.7610 O.3   139  MOL139     -0.4105
  13416  H         32.7620  156.1390  230.3260 H     139  MOL139      0.2052
  13417  H         32.0390  156.4200  228.9290 H     139  MOL139      0.2052
  13418  O        179.5490   79.8760  211.8370 O.3   140  MOL140     -0.4105
  13419  H        179.4340   80.2460  212.7370 H     140  MOL140      0.2052
  13420  H        180.0350   79.0140  211.9150 H     140  MOL140      0.2052
  13421  O         59.8560   88.0230   29.5410 O.3   141  MOL141     -0.4105
  13422  H         60.3520   87.2070   29.3170 H     141  MOL141      0.2052
  13423  H         58.9370   87.7640   29.8080 H     141  MOL141      0.2052
  13424  O        134.1580    3.1670  282.5980 O.3   142  MOL142     -0.4105
  13425  H        133.2240    2.9930  282.8380 H     142  MOL142      0.2052
  13426  H        134.7390    2.6770  283.2370 H     142  MOL142      0.2052
  13427  O         55.5030   37.2830  246.9390 O.3   143  MOL143     -0.4105
  13428  H         56.4230   37.3250  246.6040 H     143  MOL143      0.2052
  13429  H         55.1400   38.2060  246.9670 H     143  MOL143      0.2052
  13430  O         33.7940  151.7350  237.1300 O.3   144  MOL144     -0.4105
  13431  H         32.8190  151.8240  237.0960 H     144  MOL144      0.2052
  13432  H         34.0110  150.8360  237.4880 H     144  MOL144      0.2052
  13433  O         65.0320   27.8010  251.3240 O.3   145  MOL145     -0.4105
  13434  H         65.6890   27.9020  250.6050 H     145  MOL145      0.2052
  13435  H         64.7020   26.8650  251.3150 H     145  MOL145      0.2052
  13436  O         64.5800  189.5290  244.7780 O.3   146  MOL146     -0.4105
  13437  H         63.7400  189.1990  244.3970 H     146  MOL146      0.2052
  13438  H         64.4470  190.4730  245.0520 H     146  MOL146      0.2052
  13439  O        103.1270  111.3930  251.9180 O.3   147  MOL147     -0.4105
  13440  H        103.3110  110.4320  251.9790 H     147  MOL147      0.2052
  13441  H        102.1620  111.5120  251.7180 H     147  MOL147      0.2052
  13442  O        116.5380   70.8870   27.0500 O.3   148  MOL148     -0.4105
  13443  H        116.6570   70.4520   26.1800 H     148  MOL148      0.2052
  13444  H        116.5670   71.8690   26.9130 H     148  MOL148      0.2052
  13445  O        108.2770  144.4470  193.4450 O.3   149  MOL149     -0.4105
  13446  H        108.4350  143.8500  192.6840 H     149  MOL149      0.2052
  13447  H        109.1540  144.7980  193.7520 H     149  MOL149      0.2052
  13448  O         72.4480   52.7010   24.4410 O.3   150  MOL150     -0.4105
  13449  H         73.2440   52.9150   24.9710 H     150  MOL150      0.2052
  13450  H         71.7640   53.4000   24.6100 H     150  MOL150      0.2052
  13451  O         21.2260  171.6730   55.7060 O.3   151  MOL151     -0.4105
  13452  H         21.9090  172.2800   55.3500 H     151  MOL151      0.2052
  13453  H         21.0060  171.9630   56.6290 H     151  MOL151      0.2052
  13454  O        178.6630   70.3120  217.9160 O.3   152  MOL152     -0.4105
  13455  H        179.1140   70.5800  217.0880 H     152  MOL152      0.2052
  13456  H        179.1330   69.5180  218.2820 H     152  MOL152      0.2052
  13457  O        106.5180   63.6050  297.8390 O.3   153  MOL153     -0.4105
  13458  H        105.8390   64.2950  297.6910 H     153  MOL153      0.2052
  13459  H        106.1240   62.7250  297.6010 H     153  MOL153      0.2052
  13460  O        142.5450   10.3980  111.1770 O.3   154  MOL154     -0.4105
  13461  H        142.6810   11.3680  111.2100 H     154  MOL154      0.2052
  13462  H        143.4320    9.9640  111.0840 H     154  MOL154      0.2052
  13463  O        109.5700  105.8840   56.5340 O.3   155  MOL155     -0.4105
  13464  H        109.3910  106.5400   55.8280 H     155  MOL155      0.2052
  13465  H        109.6120  106.3630   57.4010 H     155  MOL155      0.2052
  13466  O        109.0280   36.0360    8.4620 O.3   156  MOL156     -0.4105
  13467  H        108.3770   36.3200    9.1370 H     156  MOL156      0.2052
  13468  H        108.8200   35.1010    8.2030 H     156  MOL156      0.2052
  13469  O         18.5070  113.0710  256.0860 O.3   157  MOL157     -0.4105
  13470  H         18.5070  112.9530  257.0590 H     157  MOL157      0.2052
  13471  H         17.8610  113.7890  255.8600 H     157  MOL157      0.2052
  13472  O        138.1780  191.3710  207.5830 O.3   158  MOL158     -0.4105
  13473  H        138.9950  191.3210  208.1220 H     158  MOL158      0.2052
  13474  H        138.1770  192.2370  207.1000 H     158  MOL158      0.2052
  13475  O        118.2340  149.6490  133.7510 O.3   159  MOL159     -0.4105
  13476  H        118.7690  148.8360  133.6330 H     159  MOL159      0.2052
  13477  H        117.2750  149.3960  133.7120 H     159  MOL159      0.2052
  13478  O        112.9520  140.4990  195.4360 O.3   160  MOL160     -0.4105
  13479  H        113.0290  139.8000  194.7540 H     160  MOL160      0.2052
  13480  H        113.8660  140.7990  195.6790 H     160  MOL160      0.2052
  13481  O         87.8910    8.3720   63.4790 O.3   161  MOL161     -0.4105
  13482  H         86.9140    8.3320   63.4220 H     161  MOL161      0.2052
  13483  H         88.2370    7.4430   63.5360 H     161  MOL161      0.2052
  13484  O         90.4040   13.7490   59.0720 O.3   162  MOL162     -0.4105
  13485  H         89.4690   13.4770   58.9580 H     162  MOL162      0.2052
  13486  H         90.9510   12.9320   59.2080 H     162  MOL162      0.2052
  13487  O         69.6530    6.1310   48.7170 O.3   163  MOL163     -0.4105
  13488  H         68.8440    6.6830   48.7460 H     163  MOL163      0.2052
  13489  H         69.3880    5.1840   48.8490 H     163  MOL163      0.2052
  13490  O        152.6780   98.9420   50.6810 O.3   164  MOL164     -0.4105
  13491  H        152.9870   98.8140   49.7590 H     164  MOL164      0.2052
  13492  H        153.3800   99.4380   51.1770 H     164  MOL164      0.2052
  13493  O        142.7770   64.8370   14.6730 O.3   165  MOL165     -0.4105
  13494  H        141.8240   64.6370   14.5620 H     165  MOL165      0.2052
  13495  H        143.2630   63.9790   14.7830 H     165  MOL165      0.2052
  13496  O         82.8190   23.9790  121.5190 O.3   166  MOL166     -0.4105
  13497  H         82.6230   23.2880  122.1860 H     166  MOL166      0.2052
  13498  H         82.2180   24.7510  121.6860 H     166  MOL166      0.2052
  13499  O         41.9920   82.3290   54.4900 O.3   167  MOL167     -0.4105
  13500  H         42.4070   82.8380   55.2170 H     167  MOL167      0.2052
  13501  H         42.3900   82.6300   53.6330 H     167  MOL167      0.2052
  13502  O        194.1580  143.1240  252.0080 O.3   168  MOL168     -0.4105
  13503  H        194.4540  142.1970  252.1260 H     168  MOL168      0.2052
  13504  H        194.6980  143.5320  251.2830 H     168  MOL168      0.2052
  13505  O         74.2800  181.8380  257.5040 O.3   169  MOL169     -0.4105
  13506  H         73.3060  181.8230  257.3930 H     169  MOL169      0.2052
  13507  H         74.5720  182.7850  257.5520 H     169  MOL169      0.2052
  13508  O        182.3030  100.1900  207.7410 O.3   170  MOL170     -0.4105
  13509  H        182.9980   99.4990  207.7810 H     170  MOL170      0.2052
  13510  H        182.7460  101.0770  207.7700 H     170  MOL170      0.2052
  13511  O         26.0900   91.1800  138.1840 O.3   171  MOL171     -0.4105
  13512  H         25.4290   91.8580  138.4370 H     171  MOL171      0.2052
  13513  H         26.9590   91.6340  138.0350 H     171  MOL171      0.2052
  13514  O         72.9900  176.4030   90.2530 O.3   172  MOL172     -0.4105
  13515  H         73.1930  175.7750   90.9770 H     172  MOL172      0.2052
  13516  H         73.5790  176.1890   89.4830 H     172  MOL172      0.2052
  13517  O         49.6110   74.2090   68.4720 O.3   173  MOL173     -0.4105
  13518  H         50.0780   73.4510   68.8820 H     173  MOL173      0.2052
  13519  H         49.2820   74.8010   69.1970 H     173  MOL173      0.2052
  13520  O        174.9980  162.6180   90.7050 O.3   174  MOL174     -0.4105
  13521  H        174.7490  161.6840   90.5440 H     174  MOL174      0.2052
  13522  H        174.2510  163.1950   90.3990 H     174  MOL174      0.2052
  13523  O        134.0050  135.5380  283.9200 O.3   175  MOL175     -0.4105
  13524  H        134.4240  136.1360  283.2660 H     175  MOL175      0.2052
  13525  H        133.3320  136.0590  284.4310 H     175  MOL175      0.2052
  13526  O        128.7370   41.9390   53.9920 O.3   176  MOL176     -0.4105
  13527  H        129.5860   41.4940   54.2000 H     176  MOL176      0.2052
  13528  H        128.9030   42.9160   53.9420 H     176  MOL176      0.2052
  13529  O         54.1080   62.8820   77.6870 O.3   177  MOL177     -0.4105
  13530  H         53.1330   62.9760   77.6940 H     177  MOL177      0.2052
  13531  H         54.3320   61.9410   77.9050 H     177  MOL177      0.2052
  13532  O        162.2560   75.0490  170.1510 O.3   178  MOL178     -0.4105
  13533  H        163.2200   74.9730  169.9910 H     178  MOL178      0.2052
  13534  H        162.0250   74.4810  170.9310 H     178  MOL178      0.2052
  13535  O         63.7270   93.3610   31.6440 O.3   179  MOL179     -0.4105
  13536  H         64.0840   92.4780   31.4130 H     179  MOL179      0.2052
  13537  H         62.7950   93.2440   31.9650 H     179  MOL179      0.2052
  13538  O        161.0850  103.7810  155.7240 O.3   180  MOL180     -0.4105
  13539  H        161.8820  103.8830  156.2860 H     180  MOL180      0.2052
  13540  H        160.7710  102.8420  155.7970 H     180  MOL180      0.2052
  13541  O         20.6640   46.5750  233.2180 O.3   181  MOL181     -0.4105
  13542  H         21.0920   46.7170  234.0880 H     181  MOL181      0.2052
  13543  H         19.7460   46.2330  233.3760 H     181  MOL181      0.2052
  13544  O        168.7540   71.7920   36.8440 O.3   182  MOL182     -0.4105
  13545  H        168.2220   72.6040   36.9770 H     182  MOL182      0.2052
  13546  H        168.1440   71.0650   36.5540 H     182  MOL182      0.2052
  13547  O         72.0040  133.0320   59.9430 O.3   183  MOL183     -0.4105
  13548  H         72.1290  134.0000   60.0250 H     183  MOL183      0.2052
  13549  H         71.0380  132.8330   60.0570 H     183  MOL183      0.2052
  13550  O          3.6050    5.6850   98.7120 O.3   184  MOL184     -0.4105
  13551  H          4.5650    5.7810   98.5400 H     184  MOL184      0.2052
  13552  H          3.2240    6.5890   98.8640 H     184  MOL184      0.2052
  13553  O        155.5670   79.8960    1.8360 O.3   185  MOL185     -0.4105
  13554  H        156.3540   79.4180    1.4990 H     185  MOL185      0.2052
  13555  H        154.7840   79.6270    1.2900 H     185  MOL185      0.2052
  13556  O         58.1170   79.7290  258.1660 O.3   186  MOL186     -0.4105
  13557  H         57.8910   78.8080  258.4100 H     186  MOL186      0.2052
  13558  H         59.1050   79.8250  258.1960 H     186  MOL186      0.2052
  13559  O        134.9210  176.8240   29.6640 O.3   187  MOL187     -0.4105
  13560  H        135.5160  177.2570   30.3120 H     187  MOL187      0.2052
  13561  H        135.4730  176.4980   28.9070 H     187  MOL187      0.2052
  13562  O        141.4190   41.9820  139.3480 O.3   188  MOL188     -0.4105
  13563  H        142.0610   41.9860  138.6080 H     188  MOL188      0.2052
  13564  H        140.6400   42.5390  139.0870 H     188  MOL188      0.2052
  13565  O         42.2690    9.2770  225.3510 O.3   189  MOL189     -0.4105
  13566  H         42.7270    9.6930  224.5900 H     189  MOL189      0.2052
  13567  H         41.9830    8.3660  225.0810 H     189  MOL189      0.2052
  13568  O        142.7490   84.8600  192.0450 O.3   190  MOL190     -0.4105
  13569  H        142.8350   84.6780  191.0860 H     190  MOL190      0.2052
  13570  H        143.6580   84.8580  192.4440 H     190  MOL190      0.2052
  13571  O         70.0810   80.3240  259.5720 O.3   191  MOL191     -0.4105
  13572  H         69.4580   80.7430  260.2030 H     191  MOL191      0.2052
  13573  H         70.8200   80.9620  259.3960 H     191  MOL191      0.2052
  13574  O         68.4580  165.1770  116.1410 O.3   192  MOL192     -0.4105
  13575  H         67.7920  164.9670  116.8290 H     192  MOL192      0.2052
  13576  H         68.2980  164.5830  115.3630 H     192  MOL192      0.2052
  13577  O        187.8320  145.9660  246.0540 O.3   193  MOL193     -0.4105
  13578  H        187.9440  145.1460  246.5780 H     193  MOL193      0.2052
  13579  H        188.3020  145.8470  245.1880 H     193  MOL193      0.2052
  13580  O         93.1130   65.9370  249.7040 O.3   194  MOL194     -0.4105
  13581  H         93.7620   65.4000  250.2040 H     194  MOL194      0.2052
  13582  H         92.2720   65.4150  249.6280 H     194  MOL194      0.2052
  13583  O        133.4160   43.0280  251.1960 O.3   195  MOL195     -0.4105
  13584  H        133.2830   42.5920  252.0640 H     195  MOL195      0.2052
  13585  H        132.9700   43.9140  251.2230 H     195  MOL195      0.2052
  13586  O        129.3830   16.2970  106.0310 O.3   196  MOL196     -0.4105
  13587  H        129.0950   16.0280  105.1330 H     196  MOL196      0.2052
  13588  H        128.6600   16.8390  106.4400 H     196  MOL196      0.2052
  13589  O         93.3810   94.7000  257.1930 O.3   197  MOL197     -0.4105
  13590  H         94.2860   94.3240  257.1770 H     197  MOL197      0.2052
  13591  H         92.7330   93.9500  257.2370 H     197  MOL197      0.2052
  13592  O        159.2120   34.0660   62.5690 O.3   198  MOL198     -0.4105
  13593  H        159.5430   34.9880   62.5650 H     198  MOL198      0.2052
  13594  H        158.2200   34.0920   62.5650 H     198  MOL198      0.2052
  13595  O        133.9220  102.3180   63.5390 O.3   199  MOL199     -0.4105
  13596  H        133.6790  101.3720   63.4650 H     199  MOL199      0.2052
  13597  H        134.7910  102.4520   63.0800 H     199  MOL199      0.2052
  13598  O        163.7870   34.6390   66.5090 O.3   200  MOL200     -0.4105
  13599  H        163.9870   35.5980   66.5320 H     200  MOL200      0.2052
  13600  H        162.8010   34.5260   66.5250 H     200  MOL200      0.2052
  13601  O        175.4600  124.5960  205.0350 O.3   201  MOL201     -0.4105
  13602  H        175.8990  125.2640  204.4670 H     201  MOL201      0.2052
  13603  H        174.4780  124.7020  204.9360 H     201  MOL201      0.2052
  13604  O         68.9240  176.0620  180.9080 O.3   202  MOL202     -0.4105
  13605  H         68.8720  177.0400  180.8870 H     202  MOL202      0.2052
  13606  H         69.8820  175.8020  180.9150 H     202  MOL202      0.2052
  13607  O         96.2220   96.1930  262.8180 O.3   203  MOL203     -0.4105
  13608  H         96.3250   95.2180  262.8040 H     203  MOL203      0.2052
  13609  H         95.2570   96.4050  262.7320 H     203  MOL203      0.2052
  13610  O         64.8870  137.6000   55.6800 O.3   204  MOL204     -0.4105
  13611  H         64.2780  136.8950   55.9850 H     204  MOL204      0.2052
  13612  H         65.7780  137.1940   55.5240 H     204  MOL204      0.2052
  13613  O         31.7200  119.1710   62.1250 O.3   205  MOL205     -0.4105
  13614  H         30.7740  118.9730   61.9590 H     205  MOL205      0.2052
  13615  H         31.9400  118.8820   63.0490 H     205  MOL205      0.2052
  13616  O         79.4980   60.1230  245.0940 O.3   206  MOL206     -0.4105
  13617  H         78.5710   60.4120  245.2230 H     206  MOL206      0.2052
  13618  H         80.0230   60.8990  244.7690 H     206  MOL206      0.2052
  13619  O         97.3540   61.5040  297.8650 O.3   207  MOL207     -0.4105
  13620  H         96.8990   62.3670  297.7630 H     207  MOL207      0.2052
  13621  H         96.7010   60.7840  297.6670 H     207  MOL207      0.2052
  13622  O         63.9360  166.2730   58.9890 O.3   208  MOL208     -0.4105
  13623  H         64.3650  166.9430   59.5620 H     208  MOL208      0.2052
  13624  H         63.8490  165.4310   59.5070 H     208  MOL208      0.2052
  13625  O         84.1200   24.1540  124.6380 O.3   209  MOL209     -0.4105
  13626  H         83.6310   23.5850  125.2680 H     209  MOL209      0.2052
  13627  H         83.6980   25.0530  124.6400 H     209  MOL209      0.2052
  13628  O        123.8650   50.5730  130.4650 O.3   210  MOL210     -0.4105
  13629  H        123.3850   51.2380  131.0000 H     210  MOL210      0.2052
  13630  H        124.7920   50.8990  130.3230 H     210  MOL210      0.2052
  13631  O         43.6750  143.6210  192.8690 O.3   211  MOL211     -0.4105
  13632  H         44.4840  143.4720  193.4020 H     211  MOL211      0.2052
  13633  H         43.6730  144.5660  192.5660 H     211  MOL211      0.2052
  13634  O        115.7380   74.7650   44.1150 O.3   212  MOL212     -0.4105
  13635  H        115.0800   75.4160   43.7930 H     212  MOL212      0.2052
  13636  H        115.2960   73.8780   44.1710 H     212  MOL212      0.2052
  13637  O        130.9290  110.0180  278.0690 O.3   213  MOL213     -0.4105
  13638  H        131.1110  109.9870  277.1070 H     213  MOL213      0.2052
  13639  H        130.7500  110.9610  278.3200 H     213  MOL213      0.2052
  13640  O        148.3530  155.0650  257.9170 O.3   214  MOL214     -0.4105
  13641  H        147.6180  154.8280  257.3130 H     214  MOL214      0.2052
  13642  H        148.8720  154.2420  258.1120 H     214  MOL214      0.2052
  13643  O        149.2670  193.2000  205.2330 O.3   215  MOL215     -0.4105
  13644  H        149.7730  193.1580  206.0720 H     215  MOL215      0.2052
  13645  H        149.6010  193.9730  204.7070 H     215  MOL215      0.2052
  13646  O         61.6120   63.0980   77.6680 O.3   216  MOL216     -0.4105
  13647  H         60.6440   63.2490   77.6720 H     216  MOL216      0.2052
  13648  H         61.7780   62.1430   77.8800 H     216  MOL216      0.2052
  13649  O         82.0500   38.0450  200.6190 O.3   217  MOL217     -0.4105
  13650  H         81.5130   38.8000  200.9370 H     217  MOL217      0.2052
  13651  H         82.1450   37.3960  201.3640 H     217  MOL217      0.2052
  13652  O         52.6060  102.2540  259.6510 O.3   218  MOL218     -0.4105
  13653  H         53.2250  103.0110  259.5800 H     218  MOL218      0.2052
  13654  H         53.1400  101.4240  259.7470 H     218  MOL218      0.2052
  13655  O         80.5970  144.1090   42.3270 O.3   219  MOL219     -0.4105
  13656  H         80.2330  144.1820   41.4200 H     219  MOL219      0.2052
  13657  H         80.0700  144.7040   42.9220 H     219  MOL219      0.2052
  13658  O        115.4980   70.5910  258.4020 O.3   220  MOL220     -0.4105
  13659  H        114.9830   70.9500  257.6490 H     220  MOL220      0.2052
  13660  H        116.0690   71.3180  258.7620 H     220  MOL220      0.2052
  13661  O         11.6330  111.5600  256.0830 O.3   221  MOL221     -0.4105
  13662  H         11.2670  112.1290  256.7910 H     221  MOL221      0.2052
  13663  H         11.2310  111.8410  255.2200 H     221  MOL221      0.2052
  13664  O         61.5820   36.5730  259.7140 O.3   222  MOL222     -0.4105
  13665  H         62.0830   36.9580  258.9650 H     222  MOL222      0.2052
  13666  H         61.5190   35.5920  259.5740 H     222  MOL222      0.2052
  13667  O        189.9050   12.1540   10.9610 O.3   223  MOL223     -0.4105
  13668  H        189.5770   12.7880   11.6330 H     223  MOL223      0.2052
  13669  H        189.6410   11.2390   11.2420 H     223  MOL223      0.2052
  13670  O        133.8740   45.1150   20.4600 O.3   224  MOL224     -0.4105
  13671  H        134.6430   45.4870   19.9780 H     224  MOL224      0.2052
  13672  H        133.9070   44.1270   20.3810 H     224  MOL224      0.2052
  13673  O         28.7070   92.5210  135.7640 O.3   225  MOL225     -0.4105
  13674  H         28.6430   93.4060  136.1800 H     225  MOL225      0.2052
  13675  H         29.5990   92.4410  135.3380 H     225  MOL225      0.2052
  13676  O         15.2640  106.4710  253.4060 O.3   226  MOL226     -0.4105
  13677  H         14.7200  106.3370  254.2100 H     226  MOL226      0.2052
  13678  H         14.9130  107.2620  252.9210 H     226  MOL226      0.2052
  13679  O         67.3380  136.1700   61.2370 O.3   227  MOL227     -0.4105
  13680  H         66.5120  136.0760   61.7560 H     227  MOL227      0.2052
  13681  H         67.7390  135.2700   61.1250 H     227  MOL227      0.2052
  13682  O         91.3160   61.4900  250.1450 O.3   228  MOL228     -0.4105
  13683  H         91.8840   60.8690  250.6480 H     228  MOL228      0.2052
  13684  H         90.4230   61.0720  250.0330 H     228  MOL228      0.2052
  13685  O        139.9690   76.3960   35.5700 O.3   229  MOL229     -0.4105
  13686  H        139.2350   76.9190   35.9540 H     229  MOL229      0.2052
  13687  H        140.7880   76.9570   35.5780 H     229  MOL229      0.2052
  13688  O         35.6040  192.2100  193.5880 O.3   230  MOL230     -0.4105
  13689  H         35.3410  193.0420  194.0330 H     230  MOL230      0.2052
  13690  H         35.8430  192.4230  192.6480 H     230  MOL230      0.2052
  13691  O         11.7340  114.1010  253.3120 O.3   231  MOL231     -0.4105
  13692  H         11.1800  114.5960  253.9510 H     231  MOL231      0.2052
  13693  H         11.6250  114.5180  252.4180 H     231  MOL231      0.2052
  13694  O        131.0050  123.2650  227.4230 O.3   232  MOL232     -0.4105
  13695  H        130.9140  122.3060  227.2440 H     232  MOL232      0.2052
  13696  H        130.0970  123.6460  227.5460 H     232  MOL232      0.2052
  13697  O         55.8930   49.4070  243.9300 O.3   233  MOL233     -0.4105
  13698  H         55.8360   48.4960  243.5730 H     233  MOL233      0.2052
  13699  H         56.6310   49.8780  243.4640 H     233  MOL233      0.2052
  13700  O         23.7830   66.8850  101.9110 O.3   234  MOL234     -0.4105
  13701  H         23.3250   67.6790  101.5650 H     234  MOL234      0.2052
  13702  H         24.6740   66.8280  101.4790 H     234  MOL234      0.2052
  13703  O        190.2340   76.7140  250.1910 O.3   235  MOL235     -0.4105
  13704  H        189.2630   76.6370  250.0910 H     235  MOL235      0.2052
  13705  H        190.5970   75.8150  250.4010 H     235  MOL235      0.2052
  13706  O         39.7900    5.1110  193.5980 O.3   236  MOL236     -0.4105
  13707  H         39.9380    4.4120  192.9280 H     236  MOL236      0.2052
  13708  H         39.0880    4.7970  194.2250 H     236  MOL236      0.2052
  13709  O         64.1440  134.6040   54.0530 O.3   237  MOL237     -0.4105
  13710  H         63.5430  133.8970   54.3690 H     237  MOL237      0.2052
  13711  H         65.0400  134.2050   53.8990 H     237  MOL237      0.2052
  13712  O         92.3910  135.2830   78.5160 O.3   238  MOL238     -0.4105
  13713  H         93.0880  135.7180   79.0500 H     238  MOL238      0.2052
  13714  H         92.8260  134.6280   77.9110 H     238  MOL238      0.2052
  13715  O         78.8700   85.2630  172.3900 O.3   239  MOL239     -0.4105
  13716  H         78.2870   84.6480  172.8820 H     239  MOL239      0.2052
  13717  H         79.0430   84.8770  171.4930 H     239  MOL239      0.2052
  13718  O         51.7230  172.8970  160.9080 O.3   240  MOL240     -0.4105
  13719  H         51.9460  172.3230  160.1460 H     240  MOL240      0.2052
  13720  H         51.7410  173.8400  160.6020 H     240  MOL240      0.2052
  13721  O         90.6500  173.7480  202.9460 O.3   241  MOL241     -0.4105
  13722  H         91.4030  173.2990  203.3830 H     241  MOL241      0.2052
  13723  H         90.0840  174.1610  203.6490 H     241  MOL241      0.2052
  13724  O        120.8460   73.3200  254.0370 O.3   242  MOL242     -0.4105
  13725  H        120.5700   73.5740  253.1320 H     242  MOL242      0.2052
  13726  H        120.9640   74.1490  254.5690 H     242  MOL242      0.2052
  13727  O        178.0760  134.5700   85.9310 O.3   243  MOL243     -0.4105
  13728  H        177.8950  134.3660   84.9900 H     243  MOL243      0.2052
  13729  H        178.4930  133.7710   86.3470 H     243  MOL243      0.2052
  13730  O         42.4490   66.1040  266.9280 O.3   244  MOL244     -0.4105
  13731  H         43.3050   66.2650  267.3780 H     244  MOL244      0.2052
  13732  H         41.8270   65.6930  267.5830 H     244  MOL244      0.2052
  13733  O         64.5170   12.0590  276.5300 O.3   245  MOL245     -0.4105
  13734  H         64.1010   12.9460  276.5100 H     245  MOL245      0.2052
  13735  H         63.7960   11.3770  276.5220 H     245  MOL245      0.2052
  13736  O        150.4740  189.8930  125.2100 O.3   246  MOL246     -0.4105
  13737  H        149.7130  190.2820  124.7300 H     246  MOL246      0.2052
  13738  H        150.2920  188.9280  125.3530 H     246  MOL246      0.2052
  13739  O         58.5140   38.0170  252.0380 O.3   247  MOL247     -0.4105
  13740  H         59.1630   37.6670  251.3930 H     247  MOL247      0.2052
  13741  H         58.5640   39.0080  252.0230 H     247  MOL247      0.2052
  13742  O        114.8420   73.7240   41.2090 O.3   248  MOL248     -0.4105
  13743  H        114.2010   74.4280   40.9770 H     248  MOL248      0.2052
  13744  H        114.3560   72.8590   41.2420 H     248  MOL248      0.2052
  13745  O         14.8270  112.5910  253.4380 O.3   249  MOL249     -0.4105
  13746  H         14.3320  112.9080  254.2210 H     249  MOL249      0.2052
  13747  H         14.5420  113.1260  252.6530 H     249  MOL249      0.2052
  13748  O        179.1530  121.7090  202.0530 O.3   250  MOL250     -0.4105
  13749  H        179.6970  122.1380  201.3590 H     250  MOL250      0.2052
  13750  H        178.2090  121.9880  201.9250 H     250  MOL250      0.2052
  13751  O         52.0280   75.6850   67.1600 O.3   251  MOL251     -0.4105
  13752  H         52.3780   74.8320   67.4940 H     251  MOL251      0.2052
  13753  H         51.9800   76.3200   67.9220 H     251  MOL251      0.2052
  13754  O         68.8660   50.4470  238.6820 O.3   252  MOL252     -0.4105
  13755  H         69.4460   50.2390  237.9190 H     252  MOL252      0.2052
  13756  H         68.7700   51.4320  238.7390 H     252  MOL252      0.2052
  13757  O         72.1140    4.3980   46.5640 O.3   253  MOL253     -0.4105
  13758  H         71.1340    4.4170   46.5330 H     253  MOL253      0.2052
  13759  H         72.4070    3.4510   46.5180 H     253  MOL253      0.2052
  13760  O         60.2570   77.5150  259.7260 O.3   254  MOL254     -0.4105
  13761  H         59.8640   76.6470  259.9550 H     254  MOL254      0.2052
  13762  H         61.2440   77.4340  259.7820 H     254  MOL254      0.2052
  13763  O         54.9590   64.7660   73.3380 O.3   255  MOL255     -0.4105
  13764  H         53.9790   64.7940   73.3610 H     255  MOL255      0.2052
  13765  H         55.2500   63.8660   73.6400 H     255  MOL255      0.2052
  13766  O         21.7120  106.9180  256.5270 O.3   256  MOL256     -0.4105
  13767  H         21.2300  107.1460  257.3490 H     256  MOL256      0.2052
  13768  H         21.4040  107.5260  255.8070 H     256  MOL256      0.2052
  13769  O        118.6700   72.2710  262.3840 O.3   257  MOL257     -0.4105
  13770  H        119.0260   73.1340  262.0830 H     257  MOL257      0.2052
  13771  H        117.6800   72.3090  262.3310 H     257  MOL257      0.2052
  13772  O         64.9490   85.3410  261.1620 O.3   258  MOL258     -0.4105
  13773  H         64.3380   85.7710  261.7960 H     258  MOL258      0.2052
  13774  H         65.7200   85.9470  261.0140 H     258  MOL258      0.2052
  13775  O         45.0960   77.1240  295.5370 O.3   259  MOL259     -0.4105
  13776  H         44.3040   77.7020  295.5290 H     259  MOL259      0.2052
  13777  H         45.9000   77.7000  295.6160 H     259  MOL259      0.2052
  13778  O        186.9060  180.6930  134.8090 O.3   260  MOL260     -0.4105
  13779  H        187.2870  181.5910  134.7170 H     260  MOL260      0.2052
  13780  H        186.1920  180.7270  135.4970 H     260  MOL260      0.2052
  13781  O         62.9500  141.1790   55.8650 O.3   261  MOL261     -0.4105
  13782  H         62.1560  141.1170   56.4360 H     261  MOL261      0.2052
  13783  H         63.3080  140.2640   55.7310 H     261  MOL261      0.2052
  13784  O         81.4140   62.4540  247.3250 O.3   262  MOL262     -0.4105
  13785  H         80.7500   63.1680  247.4280 H     262  MOL262      0.2052
  13786  H         82.1180   62.7730  246.7020 H     262  MOL262      0.2052
  13787  O        155.3290   80.4330   65.1620 O.3   263  MOL263     -0.4105
  13788  H        155.6640   79.6760   65.6870 H     263  MOL263      0.2052
  13789  H        154.3630   80.2870   64.9880 H     263  MOL263      0.2052
  13790  O        170.4900   67.7850   42.5490 O.3   264  MOL264     -0.4105
  13791  H        170.3110   68.6690   42.9320 H     264  MOL264      0.2052
  13792  H        169.7080   67.5210   41.9970 H     264  MOL264      0.2052
  13793  O         26.6040   89.5890  127.0980 O.3   265  MOL265     -0.4105
  13794  H         25.6910   89.6730  127.4440 H     265  MOL265      0.2052
  13795  H         26.9930   90.4990  127.0260 H     265  MOL265      0.2052
  13796  O        147.6160   21.2070  158.4040 O.3   266  MOL266     -0.4105
  13797  H        148.1360   21.0530  159.2200 H     266  MOL266      0.2052
  13798  H        148.2410   21.2140  157.6340 H     266  MOL266      0.2052
  13799  O         56.5580   89.1690  255.8760 O.3   267  MOL267     -0.4105
  13800  H         55.9750   88.4970  256.2870 H     267  MOL267      0.2052
  13801  H         57.5000   88.8950  256.0230 H     267  MOL267      0.2052
  13802  O        101.8220   32.4000  111.7140 O.3   268  MOL268     -0.4105
  13803  H        101.0830   32.8780  111.2830 H     268  MOL268      0.2052
  13804  H        102.6730   32.8230  111.4300 H     268  MOL268      0.2052
  13805  O        105.4090   84.8260   71.5640 O.3   269  MOL269     -0.4105
  13806  H        105.6580   85.6490   72.0340 H     269  MOL269      0.2052
  13807  H        104.4470   84.8830   71.3260 H     269  MOL269      0.2052
  13808  O        181.9970   73.6090  221.0200 O.3   270  MOL270     -0.4105
  13809  H        182.4170   73.8450  220.1660 H     270  MOL270      0.2052
  13810  H        182.4760   72.8250  221.3950 H     270  MOL270      0.2052
  13811  O          7.5960  171.0980  132.4340 O.3   271  MOL271     -0.4105
  13812  H          6.7090  170.7780  132.7020 H     271  MOL271      0.2052
  13813  H          7.5130  172.0490  132.1630 H     271  MOL271      0.2052
  13814  O        178.0230  103.4580  178.3090 O.3   272  MOL272     -0.4105
  13815  H        177.8710  103.3790  179.2740 H     272  MOL272      0.2052
  13816  H        178.8980  103.9030  178.1690 H     272  MOL272      0.2052
  13817  O        109.8750  148.8470  243.9460 O.3   273  MOL273     -0.4105
  13818  H        110.2620  148.9120  243.0480 H     273  MOL273      0.2052
  13819  H        109.5800  147.9110  244.0900 H     273  MOL273      0.2052
  13820  O         83.6720   73.9620   70.8500 O.3   274  MOL274     -0.4105
  13821  H         83.7350   74.8020   71.3490 H     274  MOL274      0.2052
  13822  H         84.5260   73.8240   70.3640 H     274  MOL274      0.2052
  13823  O        166.4320   10.6010  197.5290 O.3   275  MOL275     -0.4105
  13824  H        167.3200   10.2040  197.6530 H     275  MOL275      0.2052
  13825  H        166.3950   11.4460  198.0460 H     275  MOL275      0.2052
  13826  O        139.3960   81.0660   21.7840 O.3   276  MOL276     -0.4105
  13827  H        139.7940   81.9130   21.4940 H     276  MOL276      0.2052
  13828  H        138.4340   81.0750   21.5380 H     276  MOL276      0.2052
  13829  O        158.8520  140.3590  259.1750 O.3   277  MOL277     -0.4105
  13830  H        158.8610  139.8290  259.9990 H     277  MOL277      0.2052
  13831  H        159.0570  141.3010  259.4090 H     277  MOL277      0.2052
  13832  O        107.0260    6.1260  298.8680 O.3   278  MOL278     -0.4105
  13833  H        107.5290    6.9310  298.6230 H     278  MOL278      0.2052
  13834  H        106.3500    6.3780  299.5480 H     278  MOL278      0.2052
  13835  O         98.7230  108.3470  251.1730 O.3   279  MOL279     -0.4105
  13836  H         98.9380  107.4240  251.4260 H     279  MOL279      0.2052
  13837  H         98.0420  108.3200  250.4520 H     279  MOL279      0.2052
  13838  O        109.7230   62.4930  296.9700 O.3   280  MOL280     -0.4105
  13839  H        109.3610   63.4010  296.8960 H     280  MOL280      0.2052
  13840  H        109.0030   61.8510  296.7360 H     280  MOL280      0.2052
  13841  O         72.4080    5.6400   52.2360 O.3   281  MOL281     -0.4105
  13842  H         71.6400    6.2490   52.2310 H     281  MOL281      0.2052
  13843  H         72.0660    4.7090   52.2050 H     281  MOL281      0.2052
  13844  O        106.6380  141.2540  194.7720 O.3   282  MOL282     -0.4105
  13845  H        107.2890  140.7890  194.2050 H     282  MOL282      0.2052
  13846  H        107.0750  142.0640  195.1440 H     282  MOL282      0.2052
  13847  O         13.2460  149.0320  284.7320 O.3   283  MOL283     -0.4105
  13848  H         12.8390  149.9100  284.5720 H     283  MOL283      0.2052
  13849  H         14.2320  149.1460  284.7480 H     283  MOL283      0.2052
  13850  O        117.8670  160.5050  161.0200 O.3   284  MOL284     -0.4105
  13851  H        118.4650  160.1360  160.3360 H     284  MOL284      0.2052
  13852  H        117.5520  159.7580  161.5920 H     284  MOL284      0.2052
  13853  O        145.1460   81.0320  190.2810 O.3   285  MOL285     -0.4105
  13854  H        145.2720   80.8790  189.3210 H     285  MOL285      0.2052
  13855  H        146.0380   81.0270  190.7150 H     285  MOL285      0.2052
  13856  O         30.4500   94.9150   16.3190 O.3   286  MOL286     -0.4105
  13857  H         29.7460   95.5870   16.2040 H     286  MOL286      0.2052
  13858  H         31.3280   95.3780   16.2990 H     286  MOL286      0.2052
  13859  O        115.9090  167.7930  199.8120 O.3   287  MOL287     -0.4105
  13860  H        115.1900  168.1690  199.2640 H     287  MOL287      0.2052
  13861  H        115.4980  167.3090  200.5750 H     287  MOL287      0.2052
  13862  O        166.8480   71.8490  150.4650 O.3   288  MOL288     -0.4105
  13863  H        167.4080   72.1530  151.2100 H     288  MOL288      0.2052
  13864  H        166.2350   72.5890  150.2160 H     288  MOL288      0.2052
  13865  O         43.3840   79.9930   92.6720 O.3   289  MOL289     -0.4105
  13866  H         42.9730   79.1040   92.6780 H     289  MOL289      0.2052
  13867  H         44.3700   79.8790   92.7040 H     289  MOL289      0.2052
  13868  O         45.2600  190.5950   84.3240 O.3   290  MOL290     -0.4105
  13869  H         45.4180  189.7200   84.7360 H     290  MOL290      0.2052
  13870  H         44.3500  190.5910   83.9280 H     290  MOL290      0.2052
  13871  O        149.3770  102.0680   46.6790 O.3   291  MOL291     -0.4105
  13872  H        150.1770  101.6830   46.2650 H     291  MOL291      0.2052
  13873  H        149.6290  102.9320   47.0970 H     291  MOL291      0.2052
  13874  O        152.0310  155.0930  249.4990 O.3   292  MOL292     -0.4105
  13875  H        151.0730  155.0020  249.3140 H     292  MOL292      0.2052
  13876  H        152.5190  154.4370  248.9370 H     292  MOL292      0.2052
  13877  O         14.8630  101.1870  101.8970 O.3   293  MOL293     -0.4105
  13878  H         15.6480  101.4800  102.4050 H     293  MOL293      0.2052
  13879  H         14.0990  101.7710  102.1400 H     293  MOL293      0.2052
  13880  O        108.6920  143.9480  200.4710 O.3   294  MOL294     -0.4105
  13881  H        108.2000  143.3020  199.9220 H     294  MOL294      0.2052
  13882  H        109.6620  143.7590  200.3800 H     294  MOL294      0.2052
  13883  O         88.9900   13.9790   61.8770 O.3   295  MOL295     -0.4105
  13884  H         88.0490   13.7150   61.7970 H     295  MOL295      0.2052
  13885  H         89.5360   13.1560   61.9730 H     295  MOL295      0.2052
  13886  O         98.6170   58.1310  296.4820 O.3   296  MOL296     -0.4105
  13887  H         97.7070   58.3660  296.2040 H     296  MOL296      0.2052
  13888  H         98.7470   57.1590  296.3320 H     296  MOL296      0.2052
  13889  O         24.8240  160.1570   16.1580 O.3   297  MOL297     -0.4105
  13890  H         24.7780  160.0370   15.1860 H     297  MOL297      0.2052
  13891  H         24.1800  159.5300   16.5780 H     297  MOL297      0.2052
  13892  O        126.1850   92.1040  187.0340 O.3   298  MOL298     -0.4105
  13893  H        126.1210   92.0480  186.0570 H     298  MOL298      0.2052
  13894  H        125.5790   91.4220  187.4240 H     298  MOL298      0.2052
  13895  O        152.5520   79.6090   68.4480 O.3   299  MOL299     -0.4105
  13896  H        152.3140   78.8160   68.9720 H     299  MOL299      0.2052
  13897  H        151.7200   79.9890   68.0630 H     299  MOL299      0.2052
  13898  O        190.1150   97.7960  166.6860 O.3   300  MOL300     -0.4105
  13899  H        190.5570   97.1500  167.2760 H     300  MOL300      0.2052
  13900  H        189.7020   97.2970  165.9340 H     300  MOL300      0.2052
  13901  O        129.8610  113.8170  278.5600 O.3   301  MOL301     -0.4105
  13902  H        130.0820  114.1480  277.6650 H     301  MOL301      0.2052
  13903  H        129.3140  114.5050  279.0200 H     301  MOL301      0.2052
  13904  O        128.9410  123.6040  221.2090 O.3   302  MOL302     -0.4105
  13905  H        128.9410  122.6330  221.0730 H     302  MOL302      0.2052
  13906  H        127.9990  123.9050  221.2970 H     302  MOL302      0.2052
  13907  O         88.4860  153.3210  262.2630 O.3   303  MOL303     -0.4105
  13908  H         88.5750  152.3520  262.3820 H     303  MOL303      0.2052
  13909  H         87.5320  153.5620  262.3950 H     303  MOL303      0.2052
  13910  O        197.1910   30.4520  143.9190 O.3   304  MOL304     -0.4105
  13911  H        197.9020   29.7780  143.9190 H     304  MOL304      0.2052
  13912  H        196.3180   29.9830  143.8810 H     304  MOL304      0.2052
  13913  O         55.9140  100.8040  260.7150 O.3   305  MOL305     -0.4105
  13914  H         56.2310  101.7120  260.5230 H     305  MOL305      0.2052
  13915  H         56.7020  100.2350  260.9130 H     305  MOL305      0.2052
  13916  O         52.8100   46.8190  255.5800 O.3   306  MOL306     -0.4105
  13917  H         53.4940   46.9470  254.8910 H     306  MOL306      0.2052
  13918  H         52.4850   45.8830  255.5260 H     306  MOL306      0.2052
  13919  O        132.6150   89.4430   53.2660 O.3   307  MOL307     -0.4105
  13920  H        132.4950   90.4150   53.2230 H     307  MOL307      0.2052
  13921  H        131.9910   89.0840   53.9490 H     307  MOL307      0.2052
  13922  O         34.4020  138.0450  123.8990 O.3   308  MOL308     -0.4105
  13923  H         34.2210  137.3240  123.2590 H     308  MOL308      0.2052
  13924  H         35.2640  137.8510  124.3490 H     308  MOL308      0.2052
  13925  O         80.6910  193.8110  236.1800 O.3   309  MOL309     -0.4105
  13926  H         80.8130  194.7810  236.1230 H     309  MOL309      0.2052
  13927  H         79.7530  193.6310  236.4500 H     309  MOL309      0.2052
  13928  O         16.6430  102.3910  295.5050 O.3   310  MOL310     -0.4105
  13929  H         17.4070  101.7870  295.4000 H     310  MOL310      0.2052
  13930  H         16.6900  103.0790  294.7910 H     310  MOL310      0.2052
  13931  O         93.6580   26.8250  232.7290 O.3   311  MOL311     -0.4105
  13932  H         93.2490   27.3120  231.9840 H     311  MOL311      0.2052
  13933  H         94.2310   27.4560  233.2360 H     311  MOL311      0.2052
  13934  O        133.7260   23.1610  279.1460 O.3   312  MOL312     -0.4105
  13935  H        133.0580   22.9450  278.4620 H     312  MOL312      0.2052
  13936  H        134.4000   23.7670  278.7410 H     312  MOL312      0.2052
  13937  O        176.6280  137.4590   87.1760 O.3   313  MOL313     -0.4105
  13938  H        176.7680  137.2530   86.2290 H     313  MOL313      0.2052
  13939  H        176.8190  136.6400   87.7040 H     313  MOL313      0.2052
  13940  O         16.5020   55.2630  176.1650 O.3   314  MOL314     -0.4105
  13941  H         16.0630   56.0760  176.4930 H     314  MOL314      0.2052
  13942  H         15.8620   54.5100  176.2490 H     314  MOL314      0.2052
  13943  O        126.9620  112.1140  278.0380 O.3   315  MOL315     -0.4105
  13944  H        127.2050  111.9650  277.1000 H     315  MOL315      0.2052
  13945  H        126.7580  113.0780  278.1560 H     315  MOL315      0.2052
  13946  O        198.6530   75.2930  240.0990 O.3   316  MOL316     -0.4105
  13947  H        197.8940   74.6850  239.9810 H     316  MOL316      0.2052
  13948  H        199.2920   74.8730  240.7320 H     316  MOL316      0.2052
  13949  O         32.9810   96.2430  108.5380 O.3   317  MOL317     -0.4105
  13950  H         33.0970   97.2130  108.6200 H     317  MOL317      0.2052
  13951  H         32.0880   96.0060  108.9010 H     317  MOL317      0.2052
  13952  O        143.0550   38.6030  139.8520 O.3   318  MOL318     -0.4105
  13953  H        143.7060   38.9080  139.1850 H     318  MOL318      0.2052
  13954  H        142.2150   39.1140  139.7210 H     318  MOL318      0.2052
  13955  O        125.8800  159.4700   42.0610 O.3   319  MOL319     -0.4105
  13956  H        126.8060  159.7680   41.9390 H     319  MOL319      0.2052
  13957  H        125.4090  159.5540   41.1920 H     319  MOL319      0.2052
  13958  O        119.8400   67.8550  252.3990 O.3   320  MOL320     -0.4105
  13959  H        119.9480   68.3620  251.5670 H     320  MOL320      0.2052
  13960  H        119.1390   68.2980  252.9440 H     320  MOL320      0.2052
  13961  O        175.6870  140.2490   57.8480 O.3   321  MOL321     -0.4105
  13962  H        174.8550  140.2470   58.3650 H     321  MOL321      0.2052
  13963  H        175.7560  139.3830   57.3680 H     321  MOL321      0.2052
  13964  O          6.8750   65.0500  177.7430 O.3   322  MOL322     -0.4105
  13965  H          5.9430   65.2280  177.9860 H     322  MOL322      0.2052
  13966  H          6.9220   64.1510  177.3260 H     322  MOL322      0.2052
  13967  O        164.7780   59.4900  107.3880 O.3   323  MOL323     -0.4105
  13968  H        164.1450   58.8120  107.0720 H     323  MOL323      0.2052
  13969  H        165.6970   59.1820  107.1730 H     323  MOL323      0.2052
  13970  O        137.7510   25.7830  167.7780 O.3   324  MOL324     -0.4105
  13971  H        138.1370   24.8880  167.8810 H     324  MOL324      0.2052
  13972  H        136.7640   25.7050  167.8380 H     324  MOL324      0.2052
  13973  O         55.1250   44.4520  255.5670 O.3   325  MOL325     -0.4105
  13974  H         55.7620   44.9900  255.0520 H     325  MOL325      0.2052
  13975  H         55.1920   43.5110  255.2590 H     325  MOL325      0.2052
  13976  O         25.9000  123.7230   19.1860 O.3   326  MOL326     -0.4105
  13977  H         25.0620  123.3120   18.8880 H     326  MOL326      0.2052
  13978  H         26.4730  123.0110   19.5740 H     326  MOL326      0.2052
  13979  O        107.2470  148.4170  246.4600 O.3   327  MOL327     -0.4105
  13980  H        107.1140  148.7810  245.5600 H     327  MOL327      0.2052
  13981  H        107.5030  147.4620  246.3730 H     327  MOL327      0.2052
  13982  O         14.0240  109.1130  255.1090 O.3   328  MOL328     -0.4105
  13983  H         13.2370  109.0550  255.6900 H     328  MOL328      0.2052
  13984  H         13.9610  109.9530  254.5830 H     328  MOL328      0.2052
  13985  O        132.5050  105.2210   64.8730 O.3   329  MOL329     -0.4105
  13986  H        132.0720  104.3420   64.8680 H     329  MOL329      0.2052
  13987  H        133.3800  105.1390   64.4110 H     329  MOL329      0.2052
  13988  O        142.0220   63.6310   17.4930 O.3   330  MOL330     -0.4105
  13989  H        141.0730   63.4700   17.3090 H     330  MOL330      0.2052
  13990  H        142.4570   62.7570   17.6700 H     330  MOL330      0.2052
  13991  O        128.9920  112.2250   61.9950 O.3   331  MOL331     -0.4105
  13992  H        128.0590  111.9400   62.0860 H     331  MOL331      0.2052
  13993  H        129.1230  113.0410   62.5430 H     331  MOL331      0.2052
  13994  O        190.3270   82.3160  124.1920 O.3   332  MOL332     -0.4105
  13995  H        190.6710   82.9650  123.5430 H     332  MOL332      0.2052
  13996  H        190.6600   82.5700  125.0920 H     332  MOL332      0.2052
  13997  O         77.4570    6.1230   56.5910 O.3   333  MOL333     -0.4105
  13998  H         76.5750    5.7020   56.6550 H     333  MOL333      0.2052
  13999  H         78.1460    5.4100   56.6420 H     333  MOL333      0.2052
  14000  O        100.0160   35.6880  112.4940 O.3   334  MOL334     -0.4105
  14001  H         99.6560   36.5110  112.1020 H     334  MOL334      0.2052
  14002  H        100.9980   35.6790  112.3520 H     334  MOL334      0.2052
  14003  O         10.7380  167.8080  121.5620 O.3   335  MOL335     -0.4105
  14004  H          9.8820  167.7220  122.0310 H     335  MOL335      0.2052
  14005  H         11.4400  168.0170  122.2310 H     335  MOL335      0.2052
  14006  O         10.9890  154.2620  291.4500 O.3   336  MOL336     -0.4105
  14007  H         10.1610  154.7750  291.5640 H     336  MOL336      0.2052
  14008  H         11.7530  154.8940  291.4850 H     336  MOL336      0.2052
  14009  O        128.6230   89.6960   51.1210 O.3   337  MOL337     -0.4105
  14010  H        129.1840   90.4880   50.9790 H     337  MOL337      0.2052
  14011  H        127.7800   89.9870   51.5550 H     337  MOL337      0.2052
  14012  O         33.8660  147.7960  237.0570 O.3   338  MOL338     -0.4105
  14013  H         32.9800  148.1090  236.7790 H     338  MOL338      0.2052
  14014  H         33.7480  147.1550  237.8050 H     338  MOL338      0.2052
  14015  O         23.0640  138.1350   47.2440 O.3   339  MOL339     -0.4105
  14016  H         23.2090  137.9600   46.2910 H     339  MOL339      0.2052
  14017  H         23.4280  139.0350   47.4530 H     339  MOL339      0.2052
  14018  O         92.2180   59.3190  248.1000 O.3   340  MOL340     -0.4105
  14019  H         92.7400   58.6440  248.5820 H     340  MOL340      0.2052
  14020  H         91.2950   58.9720  247.9840 H     340  MOL340      0.2052
  14021  O         25.5070  127.3340   21.7530 O.3   341  MOL341     -0.4105
  14022  H         24.6460  127.3080   21.2840 H     341  MOL341      0.2052
  14023  H         25.6690  126.4420   22.1540 H     341  MOL341      0.2052
  14024  O         23.8300   74.0160  184.8690 O.3   342  MOL342     -0.4105
  14025  H         24.1020   74.6430  185.5720 H     342  MOL342      0.2052
  14026  H         22.8460   74.0800  184.7600 H     342  MOL342      0.2052
  14027  O        114.3740   75.4750   21.9920 O.3   343  MOL343     -0.4105
  14028  H        114.3230   74.7160   21.3730 H     343  MOL343      0.2052
  14029  H        114.6350   76.2800   21.4740 H     343  MOL343      0.2052
  14030  O        121.9380  103.2440  260.2680 O.3   344  MOL344     -0.4105
  14031  H        122.5990  103.8180  259.8270 H     344  MOL344      0.2052
  14032  H        121.0330  103.5710  260.0260 H     344  MOL344      0.2052
  14033  O        194.5550   11.9520   21.2470 O.3   345  MOL345     -0.4105
  14034  H        194.1850   12.5810   21.9020 H     345  MOL345      0.2052
  14035  H        194.1850   11.0510   21.4400 H     345  MOL345      0.2052
  14036  O        155.2330   82.7250  266.1800 O.3   346  MOL346     -0.4105
  14037  H        155.0970   82.1910  265.3690 H     346  MOL346      0.2052
  14038  H        156.1110   83.1830  266.1060 H     346  MOL346      0.2052
  14039  O        118.6760   66.0710  256.2290 O.3   347  MOL347     -0.4105
  14040  H        118.2220   66.1940  255.3700 H     347  MOL347      0.2052
  14041  H        118.9990   66.9560  256.5390 H     347  MOL347      0.2052
  14042  O        188.5090  179.5260  104.0870 O.3   348  MOL348     -0.4105
  14043  H        188.7950  179.0990  104.9210 H     348  MOL348      0.2052
  14044  H        187.6770  179.0800  103.7780 H     348  MOL348      0.2052
  14045  O        151.2590  152.9980  251.5380 O.3   349  MOL349     -0.4105
  14046  H        150.3030  152.9070  251.3430 H     349  MOL349      0.2052
  14047  H        151.7550  152.3590  250.9630 H     349  MOL349      0.2052
  14048  O        137.1800   45.4980   72.2640 O.3   350  MOL350     -0.4105
  14049  H        137.2590   46.4170   72.5930 H     350  MOL350      0.2052
  14050  H        136.8610   44.9270   73.0110 H     350  MOL350      0.2052
  14051  O        164.0370  128.6280  241.3970 O.3   351  MOL351     -0.4105
  14052  H        163.3420  128.0280  241.7400 H     351  MOL351      0.2052
  14053  H        163.6410  129.1800  240.6740 H     351  MOL351      0.2052
  14054  O        184.5290   99.5710  210.3600 O.3   352  MOL352     -0.4105
  14055  H        185.3550   99.0500  210.4330 H     352  MOL352      0.2052
  14056  H        184.7640  100.5340  210.3970 H     352  MOL352      0.2052
  14057  O        161.5410  112.5570  113.3890 O.3   353  MOL353     -0.4105
  14058  H        161.9650  111.8620  112.8440 H     353  MOL353      0.2052
  14059  H        162.2510  113.1690  113.7170 H     353  MOL353      0.2052
  14060  O        192.0960  176.9670  132.2470 O.3   354  MOL354     -0.4105
  14061  H        192.2900  177.9280  132.2670 H     354  MOL354      0.2052
  14062  H        191.2430  176.8130  132.7290 H     354  MOL354      0.2052
  14063  O         66.0410   82.5520  262.3960 O.3   355  MOL355     -0.4105
  14064  H         65.4460   82.9540  263.0620 H     355  MOL355      0.2052
  14065  H         66.7710   83.1960  262.2020 H     355  MOL355      0.2052
  14066  O        181.6370   98.2310   29.4720 O.3   356  MOL356     -0.4105
  14067  H        180.8650   98.7990   29.6730 H     356  MOL356      0.2052
  14068  H        181.7900   98.2480   28.4920 H     356  MOL356      0.2052
  14069  O         47.9810  145.4350  192.0160 O.3   357  MOL357     -0.4105
  14070  H         48.8980  145.3380  192.3480 H     357  MOL357      0.2052
  14071  H         47.8270  146.3920  191.8040 H     357  MOL357      0.2052
  14072  O        123.3280  154.7050   46.6220 O.3   358  MOL358     -0.4105
  14073  H        124.1600  155.2220   46.6250 H     358  MOL358      0.2052
  14074  H        122.8510  154.8890   45.7720 H     358  MOL358      0.2052
  14075  O         38.3740  187.5600  196.8900 O.3   359  MOL359     -0.4105
  14076  H         38.7260  188.1700  197.5720 H     359  MOL359      0.2052
  14077  H         38.8890  186.7130  196.9360 H     359  MOL359      0.2052
  14078  O         43.8070   77.7130   89.8490 O.3   360  MOL360     -0.4105
  14079  H         43.5740   76.7610   89.8700 H     360  MOL360      0.2052
  14080  H         44.7940   77.7920   89.9170 H     360  MOL360      0.2052
  14081  O        145.0750  195.1860  121.6260 O.3   361  MOL361     -0.4105
  14082  H        144.1120  195.3560  121.5710 H     361  MOL361      0.2052
  14083  H        145.2160  194.2040  121.6500 H     361  MOL361      0.2052
  14084  O        121.9980  156.1040  139.2380 O.3   362  MOL362     -0.4105
  14085  H        122.3990  155.2140  139.1480 H     362  MOL362      0.2052
  14086  H        121.0110  156.0030  139.2200 H     362  MOL362      0.2052
  14087  O         20.1100  182.6300  105.1340 O.3   363  MOL363     -0.4105
  14088  H         19.4680  183.1250  105.6850 H     363  MOL363      0.2052
  14089  H         19.7450  182.5690  104.2130 H     363  MOL363      0.2052
  14090  O         14.9420  147.2110  280.1630 O.3   364  MOL364     -0.4105
  14091  H         14.4580  148.0340  280.3860 H     364  MOL364      0.2052
  14092  H         15.9130  147.4170  280.1440 H     364  MOL364      0.2052
  14093  O        107.8370  103.3010   55.0100 O.3   365  MOL365     -0.4105
  14094  H        107.8420  103.9900   54.3130 H     365  MOL365      0.2052
  14095  H        107.5870  103.7300   55.8690 H     365  MOL365      0.2052
  14096  O        120.3830  159.6120   48.6480 O.3   366  MOL366     -0.4105
  14097  H        121.2770  159.9780   48.8130 H     366  MOL366      0.2052
  14098  H        120.1200  159.8440   47.7200 H     366  MOL366      0.2052
  14099  O         26.0750  119.6080  246.7610 O.3   367  MOL367     -0.4105
  14100  H         25.9960  119.8190  247.7140 H     367  MOL367      0.2052
  14101  H         25.3120  120.0290  246.2860 H     367  MOL367      0.2052
  14102  O        197.7080  113.3030    8.2060 O.3   368  MOL368     -0.4105
  14103  H        198.4250  113.9530    8.3630 H     368  MOL368      0.2052
  14104  H        196.8610  113.8030    8.0720 H     368  MOL368      0.2052
  14105  O        164.0410   80.7200  260.2120 O.3   369  MOL369     -0.4105
  14106  H        164.0800   80.7710  261.1900 H     369  MOL369      0.2052
  14107  H        164.5970   79.9520  259.9190 H     369  MOL369      0.2052
  14108  O        156.8560   46.1890   20.4640 O.3   370  MOL370     -0.4105
  14109  H        157.1110   46.7070   19.6720 H     370  MOL370      0.2052
  14110  H        155.8830   46.3120   20.6150 H     370  MOL370      0.2052
  14111  O        139.6650   94.1570  194.9850 O.3   371  MOL371     -0.4105
  14112  H        139.2450   93.7740  195.7830 H     371  MOL371      0.2052
  14113  H        140.6420   93.9860  195.0350 H     371  MOL371      0.2052
  14114  O        146.0910  192.2040  204.2610 O.3   372  MOL372     -0.4105
  14115  H        146.4730  192.1070  205.1590 H     372  MOL372      0.2052
  14116  H        146.5540  192.9540  203.8060 H     372  MOL372      0.2052
  14117  O        124.7890   51.7480  133.6030 O.3   373  MOL373     -0.4105
  14118  H        124.3670   52.1880  134.3710 H     373  MOL373      0.2052
  14119  H        125.6140   52.2480  133.3730 H     373  MOL373      0.2052
  14120  O         62.8080  116.3890   40.7350 O.3   374  MOL374     -0.4105
  14121  H         62.0830  116.9720   41.0430 H     374  MOL374      0.2052
  14122  H         63.4530  116.9410   40.2210 H     374  MOL374      0.2052
  14123  O         51.7820  104.6920  264.6310 O.3   375  MOL375     -0.4105
  14124  H         52.5940  105.2410  264.6060 H     375  MOL375      0.2052
  14125  H         52.0530  103.7380  264.6710 H     375  MOL375      0.2052
  14126  O          6.9310   33.4750  254.7800 O.3   376  MOL376     -0.4105
  14127  H          7.4850   32.8240  255.2590 H     376  MOL376      0.2052
  14128  H          7.5140   34.2240  254.4900 H     376  MOL376      0.2052
  14129  O         30.0100   28.1500   68.1960 O.3   377  MOL377     -0.4105
  14130  H         29.6120   27.2680   68.0390 H     377  MOL377      0.2052
  14131  H         30.9840   28.0880   68.0180 H     377  MOL377      0.2052
  14132  O        108.6700   85.2960   70.1090 O.3   378  MOL378     -0.4105
  14133  H        108.9470   85.9970   70.7350 H     378  MOL378      0.2052
  14134  H        107.7460   85.4970   69.8070 H     378  MOL378      0.2052
  14135  O         31.4360   96.9110   20.4930 O.3   379  MOL379     -0.4105
  14136  H         30.7990   97.6550   20.4410 H     379  MOL379      0.2052
  14137  H         32.3540   97.2880   20.4870 H     379  MOL379      0.2052
  14138  O         24.2200   16.3500  108.1430 O.3   380  MOL380     -0.4105
  14139  H         25.1790   16.2430  108.3120 H     380  MOL380      0.2052
  14140  H         24.0260   17.3190  108.0570 H     380  MOL380      0.2052
  14141  O         25.7920  137.8090   49.1570 O.3   381  MOL381     -0.4105
  14142  H         25.7300  137.2890   48.3290 H     381  MOL381      0.2052
  14143  H         26.3310  138.6220   48.9730 H     381  MOL381      0.2052
  14144  O        127.5100   67.1420  223.8840 O.3   382  MOL382     -0.4105
  14145  H        127.4930   66.1700  223.7590 H     382  MOL382      0.2052
  14146  H        127.6680   67.3280  224.8460 H     382  MOL382      0.2052
  14147  O          1.7150  145.3670   89.2560 O.3   383  MOL383     -0.4105
  14148  H          2.0670  146.2620   89.4430 H     383  MOL383      0.2052
  14149  H          2.3870  144.7000   89.5540 H     383  MOL383      0.2052
  14150  O         69.0510  107.7650   73.8240 O.3   384  MOL384     -0.4105
  14151  H         69.7360  107.4810   73.1840 H     384  MOL384      0.2052
  14152  H         69.0500  107.1250   74.5820 H     384  MOL384      0.2052
  14153  O         26.0460  116.4150  246.2620 O.3   385  MOL385     -0.4105
  14154  H         25.9950  116.6430  247.2140 H     385  MOL385      0.2052
  14155  H         25.3020  116.8740  245.7930 H     385  MOL385      0.2052
  14156  O        198.2040   13.6310   13.4730 O.3   386  MOL386     -0.4105
  14157  H        197.5030   14.1590   13.9090 H     386  MOL386      0.2052
  14158  H        198.1060   12.6870   13.7620 H     386  MOL386      0.2052
  14159  O        179.0600   42.9330   61.2500 O.3   387  MOL387     -0.4105
  14160  H        178.7880   42.4240   60.4580 H     387  MOL387      0.2052
  14161  H        179.6090   42.3410   61.8270 H     387  MOL387      0.2052
  14162  O         18.5950   74.5520  233.2150 O.3   388  MOL388     -0.4105
  14163  H         18.8840   73.6200  233.1190 H     388  MOL388      0.2052
  14164  H         17.6060   74.5640  233.3010 H     388  MOL388      0.2052
  14165  O         66.3730   15.4970  275.5940 O.3   389  MOL389     -0.4105
  14166  H         65.4130   15.6920  275.6000 H     389  MOL389      0.2052
  14167  H         66.4900   14.5120  275.5940 H     389  MOL389      0.2052
  14168  O         61.5590  167.4240   60.5120 O.3   390  MOL390     -0.4105
  14169  H         61.9860  168.1000   61.0780 H     390  MOL390      0.2052
  14170  H         61.5140  166.5750   61.0230 H     390  MOL390      0.2052
  14171  O        147.2070   24.3800  264.2070 O.3   391  MOL391     -0.4105
  14172  H        146.3890   24.3820  263.6670 H     391  MOL391      0.2052
  14173  H        147.8620   24.9910  263.7800 H     391  MOL391      0.2052
  14174  O        157.4520   74.6680  202.9750 O.3   392  MOL392     -0.4105
  14175  H        157.0390   73.8430  202.6430 H     392  MOL392      0.2052
  14176  H        157.9580   74.4510  203.8010 H     392  MOL392      0.2052
  14177  O        190.1090  194.3490  171.3810 O.3   393  MOL393     -0.4105
  14178  H        189.2130  194.6800  171.1600 H     393  MOL393      0.2052
  14179  H        190.6230  195.0930  171.7900 H     393  MOL393      0.2052
  14180  O        150.7110   19.3130  132.2620 O.3   394  MOL394     -0.4105
  14181  H        150.1920   19.0850  131.4620 H     394  MOL394      0.2052
  14182  H        150.0770   19.5700  132.9800 H     394  MOL394      0.2052
  14183  O        189.0780  179.5200  136.7470 O.3   395  MOL395     -0.4105
  14184  H        189.3900  180.4490  136.7290 H     395  MOL395      0.2052
  14185  H        188.2490  179.4820  137.2920 H     395  MOL395      0.2052
  14186  O         60.6730   24.0050  173.8650 O.3   396  MOL396     -0.4105
  14187  H         61.3950   23.3490  173.7760 H     396  MOL396      0.2052
  14188  H         60.5600   24.2140  174.8280 H     396  MOL396      0.2052
  14189  O        109.7600   97.8330  278.8050 O.3   397  MOL397     -0.4105
  14190  H        109.6890   98.7220  279.2110 H     397  MOL397      0.2052
  14191  H        108.8520   97.4340  278.7700 H     397  MOL397      0.2052
  14192  O        134.5900   45.2300   74.9520 O.3   398  MOL398     -0.4105
  14193  H        134.9380   46.1200   75.1730 H     398  MOL398      0.2052
  14194  H        133.9270   44.9750   75.6440 H     398  MOL398      0.2052
  14195  O         76.1080   90.7650  169.6680 O.3   399  MOL399     -0.4105
  14196  H         75.4670   90.1120  170.0190 H     399  MOL399      0.2052
  14197  H         76.5960   90.3450  168.9130 H     399  MOL399      0.2052
  14198  O         79.8360   93.8880  297.7810 O.3   400  MOL400     -0.4105
  14199  H         79.5150   94.4440  298.5220 H     400  MOL400      0.2052
  14200  H         79.2290   93.1070  297.6950 H     400  MOL400      0.2052
  14201  O        144.9500   74.4560   29.7910 O.3   401  MOL401     -0.4105
  14202  H        145.2840   73.6860   30.2960 H     401  MOL401      0.2052
  14203  H        145.2550   75.2820   30.2480 H     401  MOL401      0.2052
  14204  O         96.2870    4.0900   89.6770 O.3   402  MOL402     -0.4105
  14205  H         96.7640    3.4080   90.1930 H     402  MOL402      0.2052
  14206  H         96.2290    4.9130   90.2280 H     402  MOL402      0.2052
  14207  O         67.8060  173.5440  288.4900 O.3   403  MOL403     -0.4105
  14208  H         68.6560  173.8730  288.1280 H     403  MOL403      0.2052
  14209  H         67.1710  174.3060  288.5330 H     403  MOL403      0.2052
  14210  O        181.5690  120.2400  207.0120 O.3   404  MOL404     -0.4105
  14211  H        182.3740  120.5240  206.5310 H     404  MOL404      0.2052
  14212  H        180.8130  120.8120  206.7170 H     404  MOL404      0.2052
  14213  O        174.7730  155.1510   87.4540 O.3   405  MOL405     -0.4105
  14214  H        175.6980  154.9270   87.6890 H     405  MOL405      0.2052
  14215  H        174.4070  154.4150   86.8980 H     405  MOL405      0.2052
  14216  O        122.7650  156.3970   51.7640 O.3   406  MOL406     -0.4105
  14217  H        123.5140  156.0240   52.2740 H     406  MOL406      0.2052
  14218  H        122.6680  157.3530   52.0110 H     406  MOL406      0.2052
  14219  O         10.9640   87.4810  299.3740 O.3   407  MOL407     -0.4105
  14220  H         10.9720   86.6180  299.8380 H     407  MOL407      0.2052
  14221  H         11.5480   87.4100  298.5760 H     407  MOL407      0.2052
  14222  O         16.0520   21.0640  275.3630 O.3   408  MOL408     -0.4105
  14223  H         16.8400   21.5750  275.0830 H     408  MOL408      0.2052
  14224  H         15.2580   21.6550  275.2930 H     408  MOL408      0.2052
  14225  O         75.3760  101.7900  264.3200 O.3   409  MOL409     -0.4105
  14226  H         75.3350  101.2350  263.5130 H     409  MOL409      0.2052
  14227  H         74.5610  101.6160  264.8580 H     409  MOL409      0.2052
  14228  O        123.0540   71.0100  223.3110 O.3   410  MOL410     -0.4105
  14229  H        122.6250   70.1380  223.1810 H     410  MOL410      0.2052
  14230  H        123.6000   70.9670  224.1380 H     410  MOL410      0.2052
  14231  O         68.3670   87.1940  258.5160 O.3   411  MOL411     -0.4105
  14232  H         67.8070   87.7490  259.0990 H     411  MOL411      0.2052
  14233  H         69.2080   87.6870  258.3320 H     411  MOL411      0.2052
  14234  O        198.7680   96.9790   57.1610 O.3   412  MOL412     -0.4105
  14235  H        197.9340   96.5900   57.4980 H     412  MOL412      0.2052
  14236  H        199.4930   96.3110   57.2780 H     412  MOL412      0.2052
  14237  O         12.3750  178.5700  134.2180 O.3   413  MOL413     -0.4105
  14238  H         11.9750  177.7670  133.8230 H     413  MOL413      0.2052
  14239  H         11.6420  179.1790  134.4930 H     413  MOL413      0.2052
  14240  O         66.3240   48.8800  240.4070 O.3   414  MOL414     -0.4105
  14241  H         66.7990   48.4930  239.6420 H     414  MOL414      0.2052
  14242  H         66.4510   49.8630  240.3860 H     414  MOL414      0.2052
  14243  O        177.6860  123.6020  207.7590 O.3   415  MOL415     -0.4105
  14244  H        178.1150  124.3490  207.2920 H     415  MOL415      0.2052
  14245  H        176.7030  123.6990  207.6610 H     415  MOL415      0.2052
  14246  O         28.7240   30.0010   65.9740 O.3   416  MOL416     -0.4105
  14247  H         28.3660   29.0990   65.8420 H     416  MOL416      0.2052
  14248  H         29.7060   29.9690   65.8300 H     416  MOL416      0.2052
  14249  O        112.5690  167.2680  168.9160 O.3   417  MOL417     -0.4105
  14250  H        113.5490  167.2630  168.9480 H     417  MOL417      0.2052
  14251  H        112.2430  166.3990  169.2660 H     417  MOL417      0.2052
  14252  O        160.1800  184.4000  180.9990 O.3   418  MOL418     -0.4105
  14253  H        159.8410  183.5230  181.2750 H     418  MOL418      0.2052
  14254  H        159.4230  184.9220  180.6250 H     418  MOL418      0.2052
  14255  O         33.9580  115.0760   77.4000 O.3   419  MOL419     -0.4105
  14256  H         33.0280  114.7670   77.3770 H     419  MOL419      0.2052
  14257  H         34.0180  115.8320   78.0400 H     419  MOL419      0.2052
  14258  O         25.1010   73.8190  181.7530 O.3   420  MOL420     -0.4105
  14259  H         25.4950   74.4340  182.4070 H     420  MOL420      0.2052
  14260  H         24.1200   73.9650  181.7410 H     420  MOL420      0.2052
  14261  O        104.4910    5.2160  297.0130 O.3   421  MOL421     -0.4105
  14262  H        104.9790    5.9970  296.6780 H     421  MOL421      0.2052
  14263  H        103.9470    5.5010  297.7930 H     421  MOL421      0.2052
  14264  O         72.4400   91.6490  178.3120 O.3   422  MOL422     -0.4105
  14265  H         72.2410   90.7870  178.7340 H     422  MOL422      0.2052
  14266  H         72.1290   91.6120  177.3700 H     422  MOL422      0.2052
  14267  O        139.1400  197.3230  125.5920 O.3   423  MOL423     -0.4105
  14268  H        139.2760  196.3540  125.5330 H     423  MOL423      0.2052
  14269  H        140.0250  197.7550  125.7080 H     423  MOL423      0.2052
  14270  O         47.4300  187.5900  192.3270 O.3   424  MOL424     -0.4105
  14271  H         48.1730  187.6170  192.9650 H     424  MOL424      0.2052
  14272  H         47.1840  186.6410  192.1760 H     424  MOL424      0.2052
  14273  O         18.6210   47.8160  235.6650 O.3   425  MOL425     -0.4105
  14274  H         19.1920   47.9000  236.4570 H     425  MOL425      0.2052
  14275  H         17.6940   47.6340  235.9690 H     425  MOL425      0.2052
  14276  O         63.4680  106.1910  249.8920 O.3   426  MOL426     -0.4105
  14277  H         63.4590  107.1580  249.7330 H     426  MOL426      0.2052
  14278  H         64.4100  105.9070  250.0240 H     426  MOL426      0.2052
  14279  O         70.2690   99.7530   66.3760 O.3   427  MOL427     -0.4105
  14280  H         71.1770   99.4050   66.2520 H     427  MOL427      0.2052
  14281  H         69.7130   99.0360   66.7780 H     427  MOL427      0.2052
  14282  O        139.9120   39.9350  142.3250 O.3   428  MOL428     -0.4105
  14283  H        140.4700   39.1460  142.1620 H     428  MOL428      0.2052
  14284  H        139.9610   40.5200  141.5250 H     428  MOL428      0.2052
  14285  O        119.6680  160.1550  163.6810 O.3   429  MOL429     -0.4105
  14286  H        120.2260  160.2070  162.8780 H     429  MOL429      0.2052
  14287  H        119.7260  159.2320  164.0400 H     429  MOL429      0.2052
  14288  O         99.7460    1.3500  279.4660 O.3   430  MOL430     -0.4105
  14289  H         99.6110    2.3200  279.4470 H     430  MOL430      0.2052
  14290  H         99.2950    0.9900  280.2740 H     430  MOL430      0.2052
  14291  O         54.9180   37.5720  256.5390 O.3   431  MOL431     -0.4105
  14292  H         54.0820   37.0930  256.7180 H     431  MOL431      0.2052
  14293  H         54.7720   38.5340  256.7340 H     431  MOL431      0.2052
  14294  O        162.9580   35.5850   63.5640 O.3   432  MOL432     -0.4105
  14295  H        163.7030   36.2190   63.6110 H     432  MOL432      0.2052
  14296  H        162.1110   36.0940   63.6530 H     432  MOL432      0.2052
  14297  O         55.4660   56.2530   78.1010 O.3   433  MOL433     -0.4105
  14298  H         54.5020   56.1380   78.2360 H     433  MOL433      0.2052
  14299  H         55.9290   55.9980   78.9410 H     433  MOL433      0.2052
  14300  O         97.6300  132.5100  190.9310 O.3   434  MOL434     -0.4105
  14301  H         97.4060  132.6370  191.8760 H     434  MOL434      0.2052
  14302  H         98.6170  132.4370  190.8530 H     434  MOL434      0.2052
  14303  O         91.7430   88.0440  175.4660 O.3   435  MOL435     -0.4105
  14304  H         91.5480   87.9260  174.5130 H     435  MOL435      0.2052
  14305  H         92.4060   88.7770  175.5580 H     435  MOL435      0.2052
  14306  O        109.8060  175.2230  159.8450 O.3   436  MOL436     -0.4105
  14307  H        110.7680  175.4090  159.8300 H     436  MOL436      0.2052
  14308  H        109.6700  174.3240  160.2410 H     436  MOL436      0.2052
  14309  O         46.9630  142.6290  195.5590 O.3   437  MOL437     -0.4105
  14310  H         47.8500  142.5600  195.9710 H     437  MOL437      0.2052
  14311  H         46.8190  143.5730  195.2890 H     437  MOL437      0.2052
  14312  O        172.7990  134.2750   84.5580 O.3   438  MOL438     -0.4105
  14313  H        172.9230  134.1270   83.5980 H     438  MOL438      0.2052
  14314  H        173.3380  133.6010   85.0480 H     438  MOL438      0.2052
  14315  O         36.9730  121.6500   65.8140 O.3   439  MOL439     -0.4105
  14316  H         36.1010  121.3260   66.1230 H     439  MOL439      0.2052
  14317  H         37.4060  122.1380   66.5610 H     439  MOL439      0.2052
  14318  O         49.3550  185.1150   22.5310 O.3   440  MOL440     -0.4105
  14319  H         48.7050  184.4550   22.8510 H     440  MOL440      0.2052
  14320  H         50.0760  184.6330   22.0500 H     440  MOL440      0.2052
  14321  O         41.0780   78.6020  240.7420 O.3   441  MOL441     -0.4105
  14322  H         40.6650   78.1690  239.9660 H     441  MOL441      0.2052
  14323  H         41.5400   77.9050  241.2780 H     441  MOL441      0.2052
  14324  O         56.3640   84.4910  260.1670 O.3   442  MOL442     -0.4105
  14325  H         55.5600   83.9330  260.2100 H     442  MOL442      0.2052
  14326  H         57.1570   83.8960  260.2000 H     442  MOL442      0.2052
  14327  O        153.7830  101.6500   49.1900 O.3   443  MOL443     -0.4105
  14328  H        153.6800  101.8450   48.2350 H     443  MOL443      0.2052
  14329  H        154.6280  102.0640   49.5020 H     443  MOL443      0.2052
  14330  O        192.6220  169.0380   49.6980 O.3   444  MOL444     -0.4105
  14331  H        192.9130  168.8620   50.6170 H     444  MOL444      0.2052
  14332  H        193.2560  169.6840   49.2900 H     444  MOL444      0.2052
  14333  O         28.9870  105.2880  174.2720 O.3   445  MOL445     -0.4105
  14334  H         28.3850  106.0510  174.1440 H     445  MOL445      0.2052
  14335  H         29.9190  105.6030  174.1430 H     445  MOL445      0.2052
  14336  O         72.8050  107.4320   76.5060 O.3   446  MOL446     -0.4105
  14337  H         73.1420  106.5130   76.4510 H     446  MOL446      0.2052
  14338  H         72.4330  107.5720   77.4150 H     446  MOL446      0.2052
  14339  O         14.7810  128.5170  214.0360 O.3   447  MOL447     -0.4105
  14340  H         15.1460  129.4100  214.2120 H     447  MOL447      0.2052
  14341  H         13.8880  128.4560  214.4640 H     447  MOL447      0.2052
  14342  O         29.7760  174.8090   16.6290 O.3   448  MOL448     -0.4105
  14343  H         30.7290  175.0160   16.7240 H     448  MOL448      0.2052
  14344  H         29.3030  175.6400   16.3630 H     448  MOL448      0.2052
  14345  O          9.1810  169.8700  135.4820 O.3   449  MOL449     -0.4105
  14346  H          8.2040  169.9530  135.4880 H     449  MOL449      0.2052
  14347  H          9.5700  170.7830  135.4720 H     449  MOL449      0.2052
  14348  O        125.7640   91.6960  264.1060 O.3   450  MOL450     -0.4105
  14349  H        125.3820   91.3160  264.9250 H     450  MOL450      0.2052
  14350  H        125.0380   92.1520  263.6070 H     450  MOL450      0.2052
  14351  O        192.1430  146.3030  251.4800 O.3   451  MOL451     -0.4105
  14352  H        191.5940  145.6360  251.9420 H     451  MOL451      0.2052
  14353  H        192.8000  145.8250  250.9110 H     451  MOL451      0.2052
  14354  O         11.2240  156.4580  282.2490 O.3   452  MOL452     -0.4105
  14355  H         11.4040  157.2830  282.7460 H     452  MOL452      0.2052
  14356  H         12.0920  156.0280  282.0370 H     452  MOL452      0.2052
  14357  O         72.3710  185.6560  250.9780 O.3   453  MOL453     -0.4105
  14358  H         71.4470  185.5010  250.6900 H     453  MOL453      0.2052
  14359  H         72.5040  186.6340  251.0820 H     453  MOL453      0.2052
  14360  O        107.5510  153.2660  198.8030 O.3   454  MOL454     -0.4105
  14361  H        106.7050  152.8980  198.4730 H     454  MOL454      0.2052
  14362  H        108.2860  152.6680  198.5080 H     454  MOL454      0.2052
  14363  O         17.0930  133.3740  217.6130 O.3   455  MOL455     -0.4105
  14364  H         17.5350  134.2380  217.7510 H     455  MOL455      0.2052
  14365  H         16.2010  133.4080  218.0470 H     455  MOL455      0.2052
  14366  O        180.2920  129.8530  241.2530 O.3   456  MOL456     -0.4105
  14367  H        179.5960  130.3330  241.7500 H     456  MOL456      0.2052
  14368  H        179.9510  129.6730  240.3390 H     456  MOL456      0.2052
  14369  O        120.9850  165.1260  209.1860 O.3   457  MOL457     -0.4105
  14370  H        120.5500  164.4500  209.7470 H     457  MOL457      0.2052
  14371  H        120.3460  165.4010  208.4790 H     457  MOL457      0.2052
  14372  O        167.0450  144.0040  101.8750 O.3   458  MOL458     -0.4105
  14373  H        166.6040  143.1410  101.7250 H     458  MOL458      0.2052
  14374  H        166.3530  144.6660  102.1320 H     458  MOL458      0.2052
  14375  O        197.4470  116.4950   14.9200 O.3   459  MOL459     -0.4105
  14376  H        198.4070  116.3610   15.0670 H     459  MOL459      0.2052
  14377  H        197.2750  117.4710   14.8650 H     459  MOL459      0.2052
  14378  O         78.8510   20.7100  123.9740 O.3   460  MOL460     -0.4105
  14379  H         78.6280   20.1510  124.7480 H     460  MOL460      0.2052
  14380  H         78.2900   21.5270  124.0090 H     460  MOL460      0.2052
  14381  O        139.6610  134.3250  286.8650 O.3   461  MOL461     -0.4105
  14382  H        139.9000  135.2200  286.5440 H     461  MOL461      0.2052
  14383  H        138.7260  134.3530  287.1960 H     461  MOL461      0.2052
  14384  O        150.4670   23.6200  158.8830 O.3   462  MOL462     -0.4105
  14385  H        151.2160   23.6220  159.5150 H     462  MOL462      0.2052
  14386  H        150.8180   23.3790  157.9860 H     462  MOL462      0.2052
  14387  O        103.8550   32.2850   36.2450 O.3   463  MOL463     -0.4105
  14388  H        104.6850   31.7870   36.4010 H     463  MOL463      0.2052
  14389  H        103.4970   32.0220   35.3580 H     463  MOL463      0.2052
  14390  O         62.9380   43.4300  241.4450 O.3   464  MOL464     -0.4105
  14391  H         63.4460   42.9360  240.7680 H     464  MOL464      0.2052
  14392  H         63.1570   44.3940  241.3550 H     464  MOL464      0.2052
  14393  O        124.2290   88.6410  187.2120 O.3   465  MOL465     -0.4105
  14394  H        124.7430   88.7330  186.3830 H     465  MOL465      0.2052
  14395  H        123.3880   88.1570  187.0040 H     465  MOL465      0.2052
  14396  O        169.4790  122.9080  247.6150 O.3   466  MOL466     -0.4105
  14397  H        168.6690  122.3970  247.8250 H     466  MOL466      0.2052
  14398  H        169.2410  123.6060  246.9520 H     466  MOL466      0.2052
  14399  O        100.4890  189.7010   18.1350 O.3   467  MOL467     -0.4105
  14400  H        101.0250  189.0620   18.6490 H     467  MOL467      0.2052
  14401  H         99.9250  190.2140   18.7700 H     467  MOL467      0.2052
  14402  O        170.7490  122.8700  175.7290 O.3   468  MOL468     -0.4105
  14403  H        171.0700  122.5010  176.5790 H     468  MOL468      0.2052
  14404  H        169.9280  122.3780  175.4680 H     468  MOL468      0.2052
  14405  O        163.7180  177.4690   36.5120 O.3   469  MOL469     -0.4105
  14406  H        164.2140  176.6260   36.5740 H     469  MOL469      0.2052
  14407  H        164.3710  178.2050   36.3860 H     469  MOL469      0.2052
  14408  O        104.8190   19.8900   84.2740 O.3   470  MOL470     -0.4105
  14409  H        105.1400   19.4750   85.1010 H     470  MOL470      0.2052
  14410  H        103.8860   20.1920   84.4190 H     470  MOL470      0.2052
  14411  O        137.2060  179.7960   76.6490 O.3   471  MOL471     -0.4105
  14412  H        136.9640  178.8470   76.6140 H     471  MOL471      0.2052
  14413  H        136.3700  180.3300   76.6500 H     471  MOL471      0.2052
  14414  O        112.7310   44.4200  199.1780 O.3   472  MOL472     -0.4105
  14415  H        112.5360   45.2300  199.6940 H     472  MOL472      0.2052
  14416  H        113.0960   43.7370  199.7980 H     472  MOL472      0.2052
  14417  O        139.1360  186.9190  203.6330 O.3   473  MOL473     -0.4105
  14418  H        139.7910  187.3560  204.2170 H     473  MOL473      0.2052
  14419  H        138.9400  187.5290  202.8750 H     473  MOL473      0.2052
  14420  O        114.6320   69.9290  261.8850 O.3   474  MOL474     -0.4105
  14421  H        114.3180   70.5070  261.1590 H     474  MOL474      0.2052
  14422  H        115.3090   70.4290  262.4110 H     474  MOL474      0.2052
  14423  O         46.6080  180.1010   19.4330 O.3   475  MOL475     -0.4105
  14424  H         45.9250  179.5640   19.8870 H     475  MOL475      0.2052
  14425  H         47.1650  179.4930   18.8820 H     475  MOL475      0.2052
  14426  O         67.0950   40.2570  257.7810 O.3   476  MOL476     -0.4105
  14427  H         67.6140   40.8990  257.2530 H     476  MOL476      0.2052
  14428  H         67.3400   39.3420  257.4850 H     476  MOL476      0.2052
  14429  O        110.4970   42.5890  200.7630 O.3   477  MOL477     -0.4105
  14430  H        110.3880   43.4300  201.2560 H     477  MOL477      0.2052
  14431  H        110.7860   41.8890  201.4040 H     477  MOL477      0.2052
  14432  O         60.1500   48.6000   39.2210 O.3   478  MOL478     -0.4105
  14433  H         60.2650   47.9850   38.4660 H     478  MOL478      0.2052
  14434  H         59.2100   48.9180   39.2210 H     478  MOL478      0.2052
  14435  O        154.2070  193.2870  138.6510 O.3   479  MOL479     -0.4105
  14436  H        154.3320  193.4630  139.6070 H     479  MOL479      0.2052
  14437  H        153.3970  193.7750  138.3490 H     479  MOL479      0.2052
  14438  O         77.0250  147.0930   42.8140 O.3   480  MOL480     -0.4105
  14439  H         77.2560  147.1960   41.8670 H     480  MOL480      0.2052
  14440  H         76.1520  147.5380   42.9700 H     480  MOL480      0.2052
  14441  O         86.8330  138.4900  253.3070 O.3   481  MOL481     -0.4105
  14442  H         86.0550  137.9740  253.0100 H     481  MOL481      0.2052
  14443  H         87.6470  137.9470  253.1440 H     481  MOL481      0.2052
  14444  O        147.4870   48.3040  140.0300 O.3   482  MOL482     -0.4105
  14445  H        147.6570   47.7440  139.2440 H     482  MOL482      0.2052
  14446  H        148.1850   49.0080  140.0670 H     482  MOL482      0.2052
  14447  O         15.4710  140.8110   57.6040 O.3   483  MOL483     -0.4105
  14448  H         15.4080  141.4880   58.3100 H     483  MOL483      0.2052
  14449  H         14.8820  141.0880   56.8550 H     483  MOL483      0.2052
  14450  O         61.2920  138.5570   57.7900 O.3   484  MOL484     -0.4105
  14451  H         60.7430  137.7590   57.9420 H     484  MOL484      0.2052
  14452  H         62.2380  138.2710   57.7010 H     484  MOL484      0.2052
  14453  O         72.4120  175.6870  176.5880 O.3   485  MOL485     -0.4105
  14454  H         72.0670  176.5420  176.9180 H     485  MOL485      0.2052
  14455  H         73.3990  175.7570  176.5170 H     485  MOL485      0.2052
  14456  O         49.1260  168.9360  157.7280 O.3   486  MOL486     -0.4105
  14457  H         48.8910  168.2710  157.0470 H     486  MOL486      0.2052
  14458  H         49.3710  169.7790  157.2670 H     486  MOL486      0.2052
  14459  O        118.2730  147.6470  243.5170 O.3   487  MOL487     -0.4105
  14460  H        118.5340  146.7030  243.4810 H     487  MOL487      0.2052
  14461  H        117.4240  147.7540  243.0140 H     487  MOL487      0.2052
  14462  O          3.9150  179.3840  101.9930 O.3   488  MOL488     -0.4105
  14463  H          4.2170  180.3100  102.1000 H     488  MOL488      0.2052
  14464  H          4.6850  178.7840  102.1680 H     488  MOL488      0.2052
  14465  O        197.8410  170.7270  234.2060 O.3   489  MOL489     -0.4105
  14466  H        196.9230  170.4410  234.3970 H     489  MOL489      0.2052
  14467  H        197.8010  171.5620  233.6710 H     489  MOL489      0.2052
  14468  O        140.8890   20.5860   19.0490 O.3   490  MOL490     -0.4105
  14469  H        139.9510   20.8650   19.0060 H     490  MOL490      0.2052
  14470  H        141.4590   21.3940   18.9620 H     490  MOL490      0.2052
  14471  O        124.1700   90.0040  183.7250 O.3   491  MOL491     -0.4105
  14472  H        124.4860   90.3700  182.8720 H     491  MOL491      0.2052
  14473  H        123.4990   89.3000  183.5300 H     491  MOL491      0.2052
  14474  O         59.6220   36.4000  257.3430 O.3   492  MOL492     -0.4105
  14475  H         60.2820   36.2780  256.6280 H     492  MOL492      0.2052
  14476  H         59.1030   35.5590  257.4330 H     492  MOL492      0.2052
  14477  O        189.8410  195.5640  174.8850 O.3   493  MOL493     -0.4105
  14478  H        188.9590  195.7660  174.5090 H     493  MOL493      0.2052
  14479  H        190.1330  196.3410  175.4290 H     493  MOL493      0.2052
  14480  O        178.6590   75.5420  205.3470 O.3   494  MOL494     -0.4105
  14481  H        178.3550   76.1170  206.0800 H     494  MOL494      0.2052
  14482  H        179.1840   74.7950  205.7360 H     494  MOL494      0.2052
  14483  O        171.9430  148.0950  268.5370 O.3   495  MOL495     -0.4105
  14484  H        171.7160  147.3570  269.1390 H     495  MOL495      0.2052
  14485  H        172.2000  148.8790  269.0890 H     495  MOL495      0.2052
  14486  O        185.4800  182.8840  106.7400 O.3   496  MOL496     -0.4105
  14487  H        185.9100  182.4010  107.4760 H     496  MOL496      0.2052
  14488  H        184.6900  182.3600  106.4450 H     496  MOL496      0.2052
  14489  O        107.1830  196.0270  149.4340 O.3   497  MOL497     -0.4105
  14490  H        106.6110  196.8170  149.5360 H     497  MOL497      0.2052
  14491  H        106.6010  195.2430  149.2570 H     497  MOL497      0.2052
  14492  O        149.7810   10.7900  203.9620 O.3   498  MOL498     -0.4105
  14493  H        149.5990   11.7510  204.0220 H     498  MOL498      0.2052
  14494  H        148.9510   10.3010  204.1990 H     498  MOL498      0.2052
  14495  O         17.8420   64.2650   63.3200 O.3   499  MOL499     -0.4105
  14496  H         16.8680   64.3720   63.2980 H     499  MOL499      0.2052
  14497  H         18.2480   65.1540   63.4890 H     499  MOL499      0.2052
  14498  O          1.4430  156.8000  200.6420 O.3   500  MOL500     -0.4105
  14499  H          1.5920  155.8340  200.5690 H     500  MOL500      0.2052
  14500  H          0.5300  156.9990  200.3080 H     500  MOL500      0.2052
  14501  O        170.6790  146.8800  186.6230 O.3   501  MOL501     -0.4105
  14502  H        171.6540  146.9810  186.5830 H     501  MOL501      0.2052
  14503  H        170.3760  146.4630  185.7750 H     501  MOL501      0.2052
  14504  O        146.9440  104.2670  282.0030 O.3   502  MOL502     -0.4105
  14505  H        146.2470  104.7800  281.5440 H     502  MOL502      0.2052
  14506  H        147.4950  104.8970  282.5360 H     502  MOL502      0.2052
  14507  O         38.3360   66.3370  266.1320 O.3   503  MOL503     -0.4105
  14508  H         38.9450   66.1580  266.8790 H     503  MOL503      0.2052
  14509  H         37.4050   66.2520  266.4630 H     503  MOL503      0.2052
  14510  O         76.1120  179.0340  258.3600 O.3   504  MOL504     -0.4105
  14511  H         75.1400  179.0580  258.2360 H     504  MOL504      0.2052
  14512  H         76.4420  179.9680  258.4150 H     504  MOL504      0.2052
  14513  O         22.9870   65.9790   99.1010 O.3   505  MOL505     -0.4105
  14514  H         22.4580   66.7380   98.7790 H     505  MOL505      0.2052
  14515  H         23.8900   66.0360   98.6940 H     505  MOL505      0.2052
  14516  O        104.2610  186.7310  172.3340 O.3   506  MOL506     -0.4105
  14517  H        103.3190  186.9950  172.2750 H     506  MOL506      0.2052
  14518  H        104.3020  185.7440  172.4220 H     506  MOL506      0.2052
  14519  O         78.8420   90.8830   27.7690 O.3   507  MOL507     -0.4105
  14520  H         78.6950   91.5840   27.0990 H     507  MOL507      0.2052
  14521  H         78.5350   90.0200   27.3870 H     507  MOL507      0.2052
  14522  O         38.0290  194.4630  192.3870 O.3   508  MOL508     -0.4105
  14523  H         37.5790  195.1460  192.9260 H     508  MOL508      0.2052
  14524  H         38.3030  194.8760  191.5270 H     508  MOL508      0.2052
  14525  O        139.3170  128.6440  219.0950 O.3   509  MOL509     -0.4105
  14526  H        139.2930  129.6080  218.9190 H     509  MOL509      0.2052
  14527  H        139.2210  128.5040  220.0720 H     509  MOL509      0.2052
  14528  O         44.3990   85.6250   32.5310 O.3   510  MOL510     -0.4105
  14529  H         44.8190   86.1780   31.8390 H     510  MOL510      0.2052
  14530  H         43.8160   86.2080   33.0830 H     510  MOL510      0.2052
  14531  O        173.0170   18.4670  113.1300 O.3   511  MOL511     -0.4105
  14532  H        172.8020   19.0950  113.8510 H     511  MOL511      0.2052
  14533  H        172.1790   18.0150  112.8520 H     511  MOL511      0.2052
  14534  O        142.6930   24.1480  162.4750 O.3   512  MOL512     -0.4105
  14535  H        143.5670   24.3080  162.8890 H     512  MOL512      0.2052
  14536  H        142.8300   24.0200  161.5010 H     512  MOL512      0.2052
  14537  O         14.8760   32.9920  258.1230 O.3   513  MOL513     -0.4105
  14538  H         15.6140   32.4200  258.4220 H     513  MOL513      0.2052
  14539  H         15.2430   33.8930  257.9250 H     513  MOL513      0.2052
  14540  O        180.0340   38.7890   72.5880 O.3   514  MOL514     -0.4105
  14541  H        180.0840   38.0230   71.9780 H     514  MOL514      0.2052
  14542  H        180.7640   38.7040   73.2540 H     514  MOL514      0.2052
  14543  O        147.8460   37.3880  113.9360 O.3   515  MOL515     -0.4105
  14544  H        148.6120   36.8340  114.1930 H     515  MOL515      0.2052
  14545  H        148.0500   38.3300  114.1730 H     515  MOL515      0.2052
  14546  O        187.0040  146.3100  264.5410 O.3   516  MOL516     -0.4105
  14547  H        187.9820  146.3290  264.4780 H     516  MOL516      0.2052
  14548  H        186.7370  146.7950  265.3650 H     516  MOL516      0.2052
  14549  O        131.1230   14.9700  198.5660 O.3   517  MOL517     -0.4105
  14550  H        130.5840   15.6980  198.1910 H     517  MOL517      0.2052
  14551  H        130.5170   14.2150  198.7810 H     517  MOL517      0.2052
  14552  O        128.5570   39.8380  167.1390 O.3   518  MOL518     -0.4105
  14553  H        127.6440   39.5050  167.2700 H     518  MOL518      0.2052
  14554  H        129.1560   39.0580  167.0100 H     518  MOL518      0.2052
  14555  O         90.8020   82.8120   26.1050 O.3   519  MOL519     -0.4105
  14556  H         91.3230   81.9930   25.9710 H     519  MOL519      0.2052
  14557  H         91.2460   83.3500   26.8100 H     519  MOL519      0.2052
  14558  O        172.4830   52.4620  248.2140 O.3   520  MOL520     -0.4105
  14559  H        172.0430   53.0310  248.8800 H     520  MOL520      0.2052
  14560  H        172.0570   52.6280  247.3340 H     520  MOL520      0.2052
  14561  O        196.2920    7.8970   92.5940 O.3   521  MOL521     -0.4105
  14562  H        196.0420    6.9500   92.5760 H     521  MOL521      0.2052
  14563  H        196.0780    8.2580   93.4930 H     521  MOL521      0.2052
  14564  O        196.3790  175.9270   37.2440 O.3   522  MOL522     -0.4105
  14565  H        197.2910  175.9410   36.8860 H     522  MOL522      0.2052
  14566  H        195.8790  176.6880   36.8510 H     522  MOL522      0.2052
  14567  O         36.0750   49.8250   30.1290 O.3   523  MOL523     -0.4105
  14568  H         35.9990   48.8490   30.0830 H     523  MOL523      0.2052
  14569  H         35.4670   50.2160   29.4500 H     523  MOL523      0.2052
  14570  O        113.2780  145.0280  191.7550 O.3   524  MOL524     -0.4105
  14571  H        112.9700  144.4530  191.0240 H     524  MOL524      0.2052
  14572  H        114.2490  144.8730  191.8840 H     524  MOL524      0.2052
  14573  O        111.3270  106.0430   64.4920 O.3   525  MOL525     -0.4105
  14574  H        111.3580  105.0690   64.6000 H     525  MOL525      0.2052
  14575  H        110.3830  106.3100   64.3460 H     525  MOL525      0.2052
  14576  O         44.1860   12.3470  113.4360 O.3   526  MOL526     -0.4105
  14577  H         43.2090   12.2920  113.4970 H     526  MOL526      0.2052
  14578  H         44.4180   13.1320  112.8740 H     526  MOL526      0.2052
  14579  O         72.1160  116.5480  175.2940 O.3   527  MOL527     -0.4105
  14580  H         72.4920  116.3900  174.4030 H     527  MOL527      0.2052
  14581  H         71.1360  116.6750  175.1990 H     527  MOL527      0.2052
  14582  O         31.6630   19.2600   12.2040 O.3   528  MOL528     -0.4105
  14583  H         32.4410   18.8050   11.8170 H     528  MOL528      0.2052
  14584  H         31.3630   18.7420   12.9960 H     528  MOL528      0.2052
  14585  O        158.0170  132.7130    9.5460 O.3   529  MOL529     -0.4105
  14586  H        158.8310  133.2000    9.2990 H     529  MOL529      0.2052
  14587  H        157.2370  133.2920    9.3430 H     529  MOL529      0.2052
  14588  O        140.4040   40.8090   45.9170 O.3   530  MOL530     -0.4105
  14589  H        139.4270   40.7320   45.8970 H     530  MOL530      0.2052
  14590  H        140.7450   40.2370   46.6530 H     530  MOL530      0.2052
  14591  O         31.2560    9.8400   10.6160 O.3   531  MOL531     -0.4105
  14592  H         32.1080    9.5400   10.2350 H     531  MOL531      0.2052
  14593  H         30.9480    9.1550   11.2650 H     531  MOL531      0.2052
  14594  O        161.8740   61.4820  108.5660 O.3   532  MOL532     -0.4105
  14595  H        161.6060   60.5850  108.2720 H     532  MOL532      0.2052
  14596  H        162.8550   61.5660  108.4490 H     532  MOL532      0.2052
  14597  O         26.2360   69.1370  242.8580 O.3   533  MOL533     -0.4105
  14598  H         26.1430   68.2000  243.1270 H     533  MOL533      0.2052
  14599  H         25.8740   69.7070  243.5850 H     533  MOL533      0.2052
  14600  O        172.5640  119.6070  134.4770 O.3   534  MOL534     -0.4105
  14601  H        172.9830  118.7230  134.5280 H     534  MOL534      0.2052
  14602  H        171.5810  119.4900  134.5540 H     534  MOL534      0.2052
  14603  O         38.7030  185.3590  269.7890 O.3   535  MOL535     -0.4105
  14604  H         39.1130  185.0450  270.6230 H     535  MOL535      0.2052
  14605  H         39.3810  185.2960  269.0670 H     535  MOL535      0.2052
  14606  O        176.7480   49.1840  106.8790 O.3   536  MOL536     -0.4105
  14607  H        177.0850   48.4640  106.3050 H     536  MOL536      0.2052
  14608  H        177.2880   49.9980  106.7050 H     536  MOL536      0.2052
  14609  O        100.8880  141.7620   61.1180 O.3   537  MOL537     -0.4105
  14610  H        101.1160  142.4560   61.7710 H     537  MOL537      0.2052
  14611  H         99.9880  141.9620   60.7530 H     537  MOL537      0.2052
  14612  O        145.4250  185.4660   85.8230 O.3   538  MOL538     -0.4105
  14613  H        145.4010  184.5320   86.1170 H     538  MOL538      0.2052
  14614  H        144.5490  185.6850   85.4120 H     538  MOL538      0.2052
  14615  O        101.6340  183.2650  169.4740 O.3   539  MOL539     -0.4105
  14616  H        100.6650  183.3520  169.3610 H     539  MOL539      0.2052
  14617  H        101.8410  182.3140  169.6650 H     539  MOL539      0.2052
  14618  O         36.5200   87.1760  238.3310 O.3   540  MOL540     -0.4105
  14619  H         35.9740   87.9440  238.0610 H     540  MOL540      0.2052
  14620  H         36.1400   86.8050  239.1690 H     540  MOL540      0.2052
  14621  O         61.2260   44.8590  250.1120 O.3   541  MOL541     -0.4105
  14622  H         62.1950   45.0050  250.0890 H     541  MOL541      0.2052
  14623  H         61.0610   43.8930  250.2700 H     541  MOL541      0.2052
  14624  O         87.9540   55.5690  234.1910 O.3   542  MOL542     -0.4105
  14625  H         87.3700   55.1750  234.8720 H     542  MOL542      0.2052
  14626  H         88.7490   54.9850  234.0870 H     542  MOL542      0.2052
  14627  O         71.9570   12.7160   48.1290 O.3   543  MOL543     -0.4105
  14628  H         71.2280   12.0820   48.2910 H     543  MOL543      0.2052
  14629  H         72.8170   12.2280   48.2120 H     543  MOL543      0.2052
  14630  O        149.9670   27.8680  259.4820 O.3   544  MOL544     -0.4105
  14631  H        149.1540   27.8720  258.9350 H     544  MOL544      0.2052
  14632  H        150.5920   28.5450  259.1130 H     544  MOL544      0.2052
  14633  O        140.2620   46.1490   28.8610 O.3   545  MOL545     -0.4105
  14634  H        140.2950   47.0020   28.3790 H     545  MOL545      0.2052
  14635  H        141.0260   45.5920   28.5590 H     545  MOL545      0.2052
  14636  O        198.4730   61.9050   91.6230 O.3   546  MOL546     -0.4105
  14637  H        197.7640   61.4930   92.1600 H     546  MOL546      0.2052
  14638  H        198.2730   61.7380   90.6650 H     546  MOL546      0.2052
  14639  O        186.2180   64.1750  192.1450 O.3   547  MOL547     -0.4105
  14640  H        185.9270   63.2500  192.2860 H     547  MOL547      0.2052
  14641  H        186.7730   64.4470  192.9220 H     547  MOL547      0.2052
  14642  O        120.3950  134.0690  232.9090 O.3   548  MOL548     -0.4105
  14643  H        121.2340  134.5400  232.7220 H     548  MOL548      0.2052
  14644  H        120.5810  133.0940  232.9170 H     548  MOL548      0.2052
  14645  O        166.2450   63.0290  109.4370 O.3   549  MOL549     -0.4105
  14646  H        165.2700   63.0950  109.3630 H     549  MOL549      0.2052
  14647  H        166.5160   62.1160  109.1590 H     549  MOL549      0.2052
  14648  O        183.3760  153.4350  159.8220 O.3   550  MOL550     -0.4105
  14649  H        183.9520  152.6430  159.7870 H     550  MOL550      0.2052
  14650  H        182.4310  153.1320  159.8080 H     550  MOL550      0.2052
  14651  O        172.2450  152.1930  206.3610 O.3   551  MOL551     -0.4105
  14652  H        172.3390  152.7840  205.5860 H     551  MOL551      0.2052
  14653  H        173.1510  151.9000  206.6410 H     551  MOL551      0.2052
  14654  O         69.5170  172.7490  173.7480 O.3   552  MOL552     -0.4105
  14655  H         68.6600  173.1860  173.9320 H     552  MOL552      0.2052
  14656  H         70.2310  173.4370  173.7900 H     552  MOL552      0.2052
  14657  O         64.6790  133.8880   50.9290 O.3   553  MOL553     -0.4105
  14658  H         63.8220  133.5300   51.2420 H     553  MOL553      0.2052
  14659  H         65.3150  133.1330   50.8330 H     553  MOL553      0.2052
  14660  O        194.6470  142.2900  221.1930 O.3   554  MOL554     -0.4105
  14661  H        194.3700  141.9520  222.0700 H     554  MOL554      0.2052
  14662  H        195.3090  141.6560  220.8120 H     554  MOL554      0.2052
  14663  O        108.9030    9.4720  111.1050 O.3   555  MOL555     -0.4105
  14664  H        108.9910    9.0720  110.2150 H     555  MOL555      0.2052
  14665  H        109.8100    9.7090  111.4300 H     555  MOL555      0.2052
  14666  O        178.0430  163.7710   29.5650 O.3   556  MOL556     -0.4105
  14667  H        178.3550  162.9860   29.0670 H     556  MOL556      0.2052
  14668  H        178.2730  164.5820   29.0420 H     556  MOL556      0.2052
  14669  O         51.6480  138.4430  238.7260 O.3   557  MOL557     -0.4105
  14670  H         50.7530  138.0950  238.9210 H     557  MOL557      0.2052
  14671  H         51.5840  139.4280  238.6310 H     557  MOL557      0.2052
  14672  O        191.2110  189.2400  122.2740 O.3   558  MOL558     -0.4105
  14673  H        191.1410  190.2110  122.1650 H     558  MOL558      0.2052
  14674  H        192.1270  188.9630  122.0110 H     558  MOL558      0.2052
  14675  O        176.0830   43.9130   62.2940 O.3   559  MOL559     -0.4105
  14676  H        176.0020   43.2930   61.5400 H     559  MOL559      0.2052
  14677  H        176.6710   43.4970   62.9770 H     559  MOL559      0.2052
  14678  O         82.2190   48.2090  186.1530 O.3   560  MOL560     -0.4105
  14679  H         82.4620   47.8630  187.0370 H     560  MOL560      0.2052
  14680  H         82.7060   49.0610  186.0090 H     560  MOL560      0.2052
  14681  O        159.3960   53.7400  117.4810 O.3   561  MOL561     -0.4105
  14682  H        158.7270   53.0240  117.4840 H     561  MOL561      0.2052
  14683  H        160.2960   53.3250  117.5300 H     561  MOL561      0.2052
  14684  O         88.0810   54.9640  211.5670 O.3   562  MOL562     -0.4105
  14685  H         88.0980   54.3130  210.8340 H     562  MOL562      0.2052
  14686  H         89.0170   55.1810  211.8120 H     562  MOL562      0.2052
  14687  O        178.0410  180.6680  198.5640 O.3   563  MOL563     -0.4105
  14688  H        177.5830  180.0000  198.0120 H     563  MOL563      0.2052
  14689  H        179.0020  180.6680  198.3170 H     563  MOL563      0.2052
  14690  O        166.6430   67.7870   49.4470 O.3   564  MOL564     -0.4105
  14691  H        167.2010   67.8390   50.2510 H     564  MOL564      0.2052
  14692  H        165.8350   68.3440   49.5930 H     564  MOL564      0.2052
  14693  O         57.4790   59.7790   41.7450 O.3   565  MOL565     -0.4105
  14694  H         56.5130   59.9430   41.7620 H     565  MOL565      0.2052
  14695  H         57.7320   59.5080   40.8240 H     565  MOL565      0.2052
  14696  O         16.2050   42.0690  200.8440 O.3   566  MOL566     -0.4105
  14697  H         16.6470   42.5520  201.5730 H     566  MOL566      0.2052
  14698  H         15.2240   42.1420  200.9720 H     566  MOL566      0.2052
  14699  O        189.3920  141.5420   38.9640 O.3   567  MOL567     -0.4105
  14700  H        190.1240  140.9860   38.6240 H     567  MOL567      0.2052
  14701  H        189.1650  142.2150   38.2710 H     567  MOL567      0.2052
  14702  O        166.6660   82.6250  222.7310 O.3   568  MOL568     -0.4105
  14703  H        166.2600   83.1890  223.4210 H     568  MOL568      0.2052
  14704  H        166.6050   83.1020  221.8630 H     568  MOL568      0.2052
  14705  O        114.0190    9.2930   48.4060 O.3   569  MOL569     -0.4105
  14706  H        114.8320    9.6940   48.7800 H     569  MOL569      0.2052
  14707  H        113.8590    9.6930   47.5120 H     569  MOL569      0.2052
  14708  O        187.2360  187.9030   34.5300 O.3   570  MOL570     -0.4105
  14709  H        187.0740  188.6930   33.9730 H     570  MOL570      0.2052
  14710  H        186.3950  187.6820   35.0070 H     570  MOL570      0.2052
  14711  O        105.7810   23.3850  144.0020 O.3   571  MOL571     -0.4105
  14712  H        106.5610   23.4720  144.5900 H     571  MOL571      0.2052
  14713  H        105.8700   22.5390  143.4910 H     571  MOL571      0.2052
  14714  O        108.4630   48.2740  221.4350 O.3   572  MOL572     -0.4105
  14715  H        107.5880   47.9650  221.7500 H     572  MOL572      0.2052
  14716  H        109.0580   47.4840  221.3490 H     572  MOL572      0.2052
  14717  O         59.6210  119.0700  225.7750 O.3   573  MOL573     -0.4105
  14718  H         59.2930  118.9920  226.6960 H     573  MOL573      0.2052
  14719  H         58.9340  119.5440  225.2390 H     573  MOL573      0.2052
  14720  O        168.5220  144.4460  110.1870 O.3   574  MOL574     -0.4105
  14721  H        167.9360  143.6620  110.2460 H     574  MOL574      0.2052
  14722  H        167.9540  145.2510  110.0750 H     574  MOL574      0.2052
  14723  O         11.6880   60.6640  170.8370 O.3   575  MOL575     -0.4105
  14724  H         10.7680   60.3470  170.9560 H     575  MOL575      0.2052
  14725  H         12.2180   59.9320  170.4290 H     575  MOL575      0.2052
  14726  O         81.8170   89.0080   75.8970 O.3   576  MOL576     -0.4105
  14727  H         81.8190   89.8430   75.3850 H     576  MOL576      0.2052
  14728  H         80.9180   88.5970   75.8170 H     576  MOL576      0.2052
  14729  O         75.9920   26.4740  215.6320 O.3   577  MOL577     -0.4105
  14730  H         76.5790   25.7120  215.4460 H     577  MOL577      0.2052
  14731  H         76.5580   27.2480  215.8870 H     577  MOL577      0.2052
  14732  O        166.8390  176.8560   35.1410 O.3   578  MOL578     -0.4105
  14733  H        167.3900  176.0450   35.1560 H     578  MOL578      0.2052
  14734  H        167.4440  177.6410   35.1090 H     578  MOL578      0.2052
  14735  O          5.9180  166.4490  263.1330 O.3   579  MOL579     -0.4105
  14736  H          6.4060  166.0630  263.8900 H     579  MOL579      0.2052
  14737  H          5.4580  165.7130  262.6510 H     579  MOL579      0.2052
  14738  O        165.8240   93.3230   42.6620 O.3   580  MOL580     -0.4105
  14739  H        166.5930   93.7160   43.1240 H     580  MOL580      0.2052
  14740  H        165.8930   93.5490   41.6980 H     580  MOL580      0.2052
  14741  O         26.2440   82.8970  141.3300 O.3   581  MOL581     -0.4105
  14742  H         26.0570   83.8340  141.1120 H     581  MOL581      0.2052
  14743  H         27.2090   82.8150  141.5450 H     581  MOL581      0.2052
  14744  O        179.7610  141.8390  102.4480 O.3   582  MOL582     -0.4105
  14745  H        179.2620  142.6780  102.3590 H     582  MOL582      0.2052
  14746  H        179.1090  141.0910  102.4690 H     582  MOL582      0.2052
  14747  O         25.2300  195.5660   85.5630 O.3   583  MOL583     -0.4105
  14748  H         25.9440  194.9020   85.4630 H     583  MOL583      0.2052
  14749  H         24.3590  195.0900   85.5420 H     583  MOL583      0.2052
  14750  O          8.8000   25.3280  230.3980 O.3   584  MOL584     -0.4105
  14751  H          8.6120   24.5350  230.9420 H     584  MOL584      0.2052
  14752  H          8.4990   25.1460  229.4700 H     584  MOL584      0.2052
  14753  O         84.9430   99.1220  258.9660 O.3   585  MOL585     -0.4105
  14754  H         85.8760   99.3010  259.2090 H     585  MOL585      0.2052
  14755  H         84.9010   98.2320  258.5300 H     585  MOL585      0.2052
  14756  O         21.9340  175.1560   57.9440 O.3   586  MOL586     -0.4105
  14757  H         22.7650  175.5330   57.5870 H     586  MOL586      0.2052
  14758  H         21.6420  175.7170   58.7080 H     586  MOL586      0.2052
  14759  O        163.6270   67.8250  104.5400 O.3   587  MOL587     -0.4105
  14760  H        163.3690   66.9290  104.2370 H     587  MOL587      0.2052
  14761  H        164.6110   67.9130  104.4450 H     587  MOL587      0.2052
  14762  O         92.0980   95.5360  290.3840 O.3   588  MOL588     -0.4105
  14763  H         92.4280   96.3800  290.7560 H     588  MOL588      0.2052
  14764  H         92.6320   94.7950  290.7730 H     588  MOL588      0.2052
  14765  O         44.6900   86.0190   49.8930 O.3   589  MOL589     -0.4105
  14766  H         45.5950   85.9410   50.2620 H     589  MOL589      0.2052
  14767  H         44.6350   86.8680   49.3820 H     589  MOL589      0.2052
  14768  O        194.3900   84.9920  127.0090 O.3   590  MOL590     -0.4105
  14769  H        194.2130   85.5660  126.2350 H     590  MOL590      0.2052
  14770  H        195.0310   85.4620  127.6030 H     590  MOL590      0.2052
  14771  O         59.8800   45.0350   39.1660 O.3   591  MOL591     -0.4105
  14772  H         59.9300   44.5120   38.3380 H     591  MOL591      0.2052
  14773  H         58.9610   45.3990   39.2470 H     591  MOL591      0.2052
  14774  O         33.5110   62.2540  276.9160 O.3   592  MOL592     -0.4105
  14775  H         33.1180   63.1470  277.0140 H     592  MOL592      0.2052
  14776  H         32.7790   61.6120  276.7230 H     592  MOL592      0.2052
  14777  O        183.0150  117.1170  205.1860 O.3   593  MOL593     -0.4105
  14778  H        183.4550  117.7100  204.5420 H     593  MOL593      0.2052
  14779  H        182.0340  117.2410  205.1030 H     593  MOL593      0.2052
  14780  O         13.5130   10.0440   97.2390 O.3   594  MOL594     -0.4105
  14781  H         14.1060   10.3520   97.9560 H     594  MOL594      0.2052
  14782  H         12.5820   10.0490   97.5830 H     594  MOL594      0.2052
  14783  O          2.5450  101.3460  269.2330 O.3   595  MOL595     -0.4105
  14784  H          1.8560  101.3600  269.9300 H     595  MOL595      0.2052
  14785  H          2.5790  102.2440  268.8110 H     595  MOL595      0.2052
  14786  O         10.9570   30.7020   81.1790 O.3   596  MOL596     -0.4105
  14787  H         11.5520   31.1700   80.5560 H     596  MOL596      0.2052
  14788  H         11.2760   30.8760   82.1030 H     596  MOL596      0.2052
  14789  O        105.5500   87.4920   69.3560 O.3   597  MOL597     -0.4105
  14790  H        105.7060   88.3690   69.7650 H     597  MOL597      0.2052
  14791  H        104.5860   87.4200   69.1340 H     597  MOL597      0.2052
  14792  O        165.3910    8.1760  195.1700 O.3   598  MOL598     -0.4105
  14793  H        166.3290    8.2910  195.4280 H     598  MOL598      0.2052
  14794  H        164.8500    8.8510  195.6560 H     598  MOL598      0.2052
  14795  O        141.7090    4.1120  243.5130 O.3   599  MOL599     -0.4105
  14796  H        142.0820    3.2770  243.8640 H     599  MOL599      0.2052
  14797  H        141.7480    4.7960  244.2310 H     599  MOL599      0.2052
  14798  O        161.6760   66.7030   99.2800 O.3   600  MOL600     -0.4105
  14799  H        161.8010   67.1460  100.1450 H     600  MOL600      0.2052
  14800  H        160.9690   66.0150   99.3830 H     600  MOL600      0.2052
  14801  O        137.5190   67.2140  286.8820 O.3   601  MOL601     -0.4105
  14802  H        137.2960   66.3050  287.1730 H     601  MOL601      0.2052
  14803  H        136.6730   67.6890  286.6740 H     601  MOL601      0.2052
  14804  O        183.5930   75.0070  169.8150 O.3   602  MOL602     -0.4105
  14805  H        182.9590   75.1830  169.0890 H     602  MOL602      0.2052
  14806  H        183.1310   74.4690  170.5090 H     602  MOL602      0.2052
  14807  O        193.6640  131.6870  124.7420 O.3   603  MOL603     -0.4105
  14808  H        194.5950  131.5760  125.0240 H     603  MOL603      0.2052
  14809  H        193.6300  132.4080  124.0600 H     603  MOL603      0.2052
  14810  O         83.0790  177.1080   17.1140 O.3   604  MOL604     -0.4105
  14811  H         82.6260  176.4090   17.6300 H     604  MOL604      0.2052
  14812  H         83.8380  177.4500   17.6550 H     604  MOL604      0.2052
  14813  O         77.0260  160.9480  203.1520 O.3   605  MOL605     -0.4105
  14814  H         77.2930  161.6950  203.7270 H     605  MOL605      0.2052
  14815  H         76.6140  161.3200  202.3300 H     605  MOL605      0.2052
  14816  O        117.3270  176.6990   24.9570 O.3   606  MOL606     -0.4105
  14817  H        117.4980  176.0140   24.2770 H     606  MOL606      0.2052
  14818  H        116.4350  177.0950   24.7810 H     606  MOL606      0.2052
  14819  O        164.5590  108.9250  163.6930 O.3   607  MOL607     -0.4105
  14820  H        164.5680  109.7730  164.1840 H     607  MOL607      0.2052
  14821  H        165.4970  108.6760  163.4850 H     607  MOL607      0.2052
  14822  O        169.2070  105.2350  187.1220 O.3   608  MOL608     -0.4105
  14823  H        169.8640  105.9620  187.1450 H     608  MOL608      0.2052
  14824  H        168.3070  105.6330  186.9940 H     608  MOL608      0.2052
  14825  O         78.0280  172.1460  184.3760 O.3   609  MOL609     -0.4105
  14826  H         78.4360  171.5320  185.0220 H     609  MOL609      0.2052
  14827  H         78.6610  172.8920  184.2140 H     609  MOL609      0.2052
  14828  O        152.9930   66.8080   89.0370 O.3   610  MOL610     -0.4105
  14829  H        153.5630   66.2150   88.5040 H     610  MOL610      0.2052
  14830  H        152.2770   67.1620   88.4480 H     610  MOL610      0.2052
  14831  O         50.1850   33.1210   99.8070 O.3   611  MOL611     -0.4105
  14832  H         49.9080   34.0200  100.0820 H     611  MOL611      0.2052
  14833  H         49.4520   32.4890  100.0270 H     611  MOL611      0.2052
  14834  O        134.3850  117.0540   40.6160 O.3   612  MOL612     -0.4105
  14835  H        133.6900  116.3640   40.5730 H     612  MOL612      0.2052
  14836  H        133.9410  117.9410   40.6360 H     612  MOL612      0.2052
  14837  O        176.6630   48.3710   40.2430 O.3   613  MOL613     -0.4105
  14838  H        176.3440   49.2650   40.0000 H     613  MOL613      0.2052
  14839  H        176.9600   48.3940   41.1890 H     613  MOL613      0.2052
  14840  O        166.8480   35.2420   61.8570 O.3   614  MOL614     -0.4105
  14841  H        167.0300   36.2050   61.8480 H     614  MOL614      0.2052
  14842  H        165.8650   35.1110   61.8500 H     614  MOL614      0.2052
  14843  O        183.1550  123.3610  255.6950 O.3   615  MOL615     -0.4105
  14844  H        183.6090  124.1180  255.2680 H     615  MOL615      0.2052
  14845  H        183.7150  122.5520  255.5680 H     615  MOL615      0.2052
  14846  O        113.3790   27.2350  206.3580 O.3   616  MOL616     -0.4105
  14847  H        113.5230   26.2910  206.5770 H     616  MOL616      0.2052
  14848  H        114.0320   27.7760  206.8730 H     616  MOL616      0.2052
  14849  O          5.6770   60.3640  260.0610 O.3   617  MOL617     -0.4105
  14850  H          6.5760   59.9740  260.0890 H     617  MOL617      0.2052
  14851  H          5.7690   61.3500  259.9960 H     617  MOL617      0.2052
  14852  O        174.5900   38.8240  243.4800 O.3   618  MOL618     -0.4105
  14853  H        175.2950   39.4150  243.1410 H     618  MOL618      0.2052
  14854  H        173.8470   39.3880  243.8160 H     618  MOL618      0.2052
  14855  O         97.6430   37.1500   81.9870 O.3   619  MOL619     -0.4105
  14856  H         98.5100   37.3030   81.5560 H     619  MOL619      0.2052
  14857  H         96.9520   37.0780   81.2780 H     619  MOL619      0.2052
  14858  O        147.2580   48.5770   84.2780 O.3   620  MOL620     -0.4105
  14859  H        146.4980   48.3580   84.8570 H     620  MOL620      0.2052
  14860  H        147.3020   49.5640   84.1850 H     620  MOL620      0.2052
  14861  O         34.9370   27.5020  202.9750 O.3   621  MOL621     -0.4105
  14862  H         35.7970   27.9500  203.1140 H     621  MOL621      0.2052
  14863  H         35.0810   26.5230  203.0530 H     621  MOL621      0.2052
  14864  O        194.1400   25.2730   33.5000 O.3   622  MOL622     -0.4105
  14865  H        194.3230   26.2270   33.3720 H     622  MOL622      0.2052
  14866  H        194.8900   24.8800   34.0170 H     622  MOL622      0.2052
  14867  O        122.0980  158.6730  141.4630 O.3   623  MOL623     -0.4105
  14868  H        122.8720  158.0920  141.3080 H     623  MOL623      0.2052
  14869  H        121.2760  158.1210  141.3900 H     623  MOL623      0.2052
  14870  O         19.9240  168.5030   54.9040 O.3   624  MOL624     -0.4105
  14871  H         20.5580  169.0540   54.4010 H     624  MOL624      0.2052
  14872  H         19.8400  168.8820   55.8180 H     624  MOL624      0.2052
  14873  O        179.8180   50.0060  104.9870 O.3   625  MOL625     -0.4105
  14874  H        179.7400   49.1370  104.5410 H     625  MOL625      0.2052
  14875  H        180.6220   50.4670  104.6310 H     625  MOL625      0.2052
  14876  O         12.5550  123.5070  292.9530 O.3   626  MOL626     -0.4105
  14877  H         12.8860  122.9850  293.7140 H     626  MOL626      0.2052
  14878  H         11.8860  122.9580  292.4680 H     626  MOL626      0.2052
  14879  O         97.2890  130.9660    4.2180 O.3   627  MOL627     -0.4105
  14880  H         97.2350  130.6590    5.1480 H     627  MOL627      0.2052
  14881  H         96.5820  131.6470    4.0750 H     627  MOL627      0.2052
  14882  O        149.5720  186.6680   90.5250 O.3   628  MOL628     -0.4105
  14883  H        149.3790  185.7660   90.1940 H     628  MOL628      0.2052
  14884  H        150.3570  186.6150   91.1310 H     628  MOL628      0.2052
  14885  O         96.2160  127.6270  189.9930 O.3   629  MOL629     -0.4105
  14886  H         96.0890  127.5470  190.9610 H     629  MOL629      0.2052
  14887  H         97.1800  127.4940  189.7940 H     629  MOL629      0.2052
  14888  O        120.5920  158.1680   44.1190 O.3   630  MOL630     -0.4105
  14889  H        121.4620  158.5820   43.9390 H     630  MOL630      0.2052
  14890  H        119.9650  158.4360   43.3970 H     630  MOL630      0.2052
  14891  O        100.2110   13.9240  134.5650 O.3   631  MOL631     -0.4105
  14892  H         99.8480   13.9680  133.6560 H     631  MOL631      0.2052
  14893  H         99.9430   14.7490  135.0470 H     631  MOL631      0.2052
  14894  O        188.0910  125.2800  194.4680 O.3   632  MOL632     -0.4105
  14895  H        188.2200  125.4990  193.5210 H     632  MOL632      0.2052
  14896  H        188.7840  125.7570  194.9940 H     632  MOL632      0.2052
  14897  O        121.8300  195.1060  127.7380 O.3   633  MOL633     -0.4105
  14898  H        120.9590  194.6780  127.6020 H     633  MOL633      0.2052
  14899  H        122.4850  194.4030  127.9880 H     633  MOL633      0.2052
  14900  O         47.9690   67.9940  186.8000 O.3   634  MOL634     -0.4105
  14901  H         48.0830   67.1210  186.3700 H     634  MOL634      0.2052
  14902  H         48.7230   68.5770  186.5260 H     634  MOL634      0.2052
  14903  O         97.1910   98.2570  251.8450 O.3   635  MOL635     -0.4105
  14904  H         98.0590   97.8110  251.9330 H     635  MOL635      0.2052
  14905  H         96.5160   97.5750  251.5930 H     635  MOL635      0.2052
  14906  O        133.2440  169.7640   37.3390 O.3   636  MOL636     -0.4105
  14907  H        133.8150  169.3740   38.0340 H     636  MOL636      0.2052
  14908  H        132.7850  169.0240   36.8630 H     636  MOL636      0.2052
  14909  O         40.8460  172.0820   49.4970 O.3   637  MOL637     -0.4105
  14910  H         40.0150  172.4710   49.8400 H     637  MOL637      0.2052
  14911  H         41.2270  172.7050   48.8250 H     637  MOL637      0.2052
  14912  O         21.1420  176.2660  126.4720 O.3   638  MOL638     -0.4105
  14913  H         20.9220  175.3170  126.5760 H     638  MOL638      0.2052
  14914  H         22.0510  176.4170  126.8420 H     638  MOL638      0.2052
  14915  O        103.2780  176.1030  150.6810 O.3   639  MOL639     -0.4105
  14916  H        104.2530  176.1980  150.6900 H     639  MOL639      0.2052
  14917  H        103.0510  175.1930  151.0040 H     639  MOL639      0.2052
  14918  O        164.9260  132.0550  242.9360 O.3   640  MOL640     -0.4105
  14919  H        165.1200  131.5710  243.7660 H     640  MOL640      0.2052
  14920  H        164.1540  131.6160  242.4930 H     640  MOL640      0.2052
  14921  O         84.0580    4.0280  106.1890 O.3   641  MOL641     -0.4105
  14922  H         83.4580    4.0740  106.9620 H     641  MOL641      0.2052
  14923  H         83.6660    3.4010  105.5280 H     641  MOL641      0.2052
  14924  O        182.2180   89.4760   51.9120 O.3   642  MOL642     -0.4105
  14925  H        182.9630   89.0190   51.4680 H     642  MOL642      0.2052
  14926  H        182.5330   90.3700   52.2050 H     642  MOL642      0.2052
  14927  O        161.3150   17.0200  253.0930 O.3   643  MOL643     -0.4105
  14928  H        160.3730   17.2900  253.0890 H     643  MOL643      0.2052
  14929  H        161.3540   16.0290  253.1160 H     643  MOL643      0.2052
  14930  O         75.8420  175.4070  259.3150 O.3   644  MOL644     -0.4105
  14931  H         74.9340  175.6220  259.0160 H     644  MOL644      0.2052
  14932  H         76.3240  176.2590  259.4800 H     644  MOL644      0.2052
  14933  O        140.5630   42.9610  143.3130 O.3   645  MOL645     -0.4105
  14934  H        141.4120   42.7830  142.8570 H     645  MOL645      0.2052
  14935  H        140.1610   43.7760  142.9140 H     645  MOL645      0.2052
  14936  O         62.5780   24.6780   84.6880 O.3   646  MOL646     -0.4105
  14937  H         62.9950   25.3220   85.2980 H     646  MOL646      0.2052
  14938  H         62.1350   25.1840   83.9580 H     646  MOL646      0.2052
  14939  O         37.8790  171.4750  291.5980 O.3   647  MOL647     -0.4105
  14940  H         38.2300  170.7480  292.1530 H     647  MOL647      0.2052
  14941  H         38.2340  171.3610  290.6780 H     647  MOL647      0.2052
  14942  O        125.4640  160.3590  141.7110 O.3   648  MOL648     -0.4105
  14943  H        125.5610  159.4120  141.4750 H     648  MOL648      0.2052
  14944  H        124.4970  160.5810  141.7120 H     648  MOL648      0.2052
  14945  O        177.9700  143.1990  221.2410 O.3   649  MOL649     -0.4105
  14946  H        177.1290  143.3050  220.7500 H     649  MOL649      0.2052
  14947  H        178.1030  142.2330  221.4240 H     649  MOL649      0.2052
  14948  O        195.8160   33.7320  205.0710 O.3   650  MOL650     -0.4105
  14949  H        195.3090   34.4410  205.5200 H     650  MOL650      0.2052
  14950  H        195.8470   32.9440  205.6730 H     650  MOL650      0.2052
  14951  O         83.7970   90.6310  291.9950 O.3   651  MOL651     -0.4105
  14952  H         82.9510   90.3530  292.4040 H     651  MOL651      0.2052
  14953  H         84.2820   89.8170  291.7020 H     651  MOL651      0.2052
  14954  O        104.0290  165.1200  198.9150 O.3   652  MOL652     -0.4105
  14955  H        104.5840  165.8410  199.2790 H     652  MOL652      0.2052
  14956  H        103.7040  165.3990  198.0200 H     652  MOL652      0.2052
  14957  O        110.5830  143.5330  289.4380 O.3   653  MOL653     -0.4105
  14958  H        110.5890  142.5690  289.2620 H     653  MOL653      0.2052
  14959  H        110.0460  143.6950  290.2560 H     653  MOL653      0.2052
  14960  O        166.2650   81.3410  288.6140 O.3   654  MOL654     -0.4105
  14961  H        167.1100   81.0750  288.1950 H     654  MOL654      0.2052
  14962  H        166.1110   82.3010  288.4190 H     654  MOL654      0.2052
  14963  O         27.7920   83.0730  197.6680 O.3   655  MOL655     -0.4105
  14964  H         27.9830   83.4740  196.7950 H     655  MOL655      0.2052
  14965  H         27.5190   83.7970  198.2890 H     655  MOL655      0.2052
  14966  O          8.3480   17.0900  277.2700 O.3   656  MOL656     -0.4105
  14967  H          8.3820   16.1110  277.2520 H     656  MOL656      0.2052
  14968  H          7.3960   17.3680  277.2700 H     656  MOL656      0.2052
  14969  O         30.4510    5.3210  224.8410 O.3   657  MOL657     -0.4105
  14970  H         29.7550    4.6310  224.8440 H     657  MOL657      0.2052
  14971  H         30.0200    6.1980  225.0130 H     657  MOL657      0.2052
  14972  O        104.6380  171.4380  201.8030 O.3   658  MOL658     -0.4105
  14973  H        104.4180  172.3910  201.8660 H     658  MOL658      0.2052
  14974  H        103.7900  170.9260  201.7450 H     658  MOL658      0.2052
  14975  O         42.2120   70.5080  152.3170 O.3   659  MOL659     -0.4105
  14976  H         42.0840   69.5360  152.3070 H     659  MOL659      0.2052
  14977  H         42.6770   70.7680  151.4800 H     659  MOL659      0.2052
  14978  O         48.2280   28.4110  248.2100 O.3   660  MOL660     -0.4105
  14979  H         47.8650   27.5030  248.1490 H     660  MOL660      0.2052
  14980  H         48.9440   28.5060  247.5300 H     660  MOL660      0.2052
  14981  O         24.3780  178.1900  266.5450 O.3   661  MOL661     -0.4105
  14982  H         24.4750  177.3060  266.9580 H     661  MOL661      0.2052
  14983  H         25.2830  178.5800  266.4300 H     661  MOL661      0.2052
  14984  O        174.9400  171.9300   71.8080 O.3   662  MOL662     -0.4105
  14985  H        175.8750  171.6670   71.6810 H     662  MOL662      0.2052
  14986  H        174.8800  172.9160   71.7210 H     662  MOL662      0.2052
  14987  O        197.5840  199.3050  240.3040 O.3   663  MOL663     -0.4105
  14988  H        198.2720  199.9980  240.3900 H     663  MOL663      0.2052
  14989  H        198.0280  198.4190  240.3520 H     663  MOL663      0.2052
  14990  O        191.3170  144.0020  214.8440 O.3   664  MOL664     -0.4105
  14991  H        191.0700  143.7320  215.7540 H     664  MOL664      0.2052
  14992  H        191.9520  143.3310  214.4830 H     664  MOL664      0.2052
  14993  O        120.0010  121.0620  248.3440 O.3   665  MOL665     -0.4105
  14994  H        120.8120  120.6020  248.0410 H     665  MOL665      0.2052
  14995  H        119.7900  120.7470  249.2610 H     665  MOL665      0.2052
  14996  O         76.5250   34.1240   64.5510 O.3   666  MOL666     -0.4105
  14997  H         75.8700   34.6130   65.0930 H     666  MOL666      0.2052
  14998  H         76.2780   33.1630   64.5590 H     666  MOL666      0.2052
  14999  O        120.4670   89.9030  212.9340 O.3   667  MOL667     -0.4105
  15000  H        119.5820   90.3240  212.9160 H     667  MOL667      0.2052
  15001  H        120.3450   88.9210  212.8620 H     667  MOL667      0.2052
  15002  O        141.3170    7.3830  177.1660 O.3   668  MOL668     -0.4105
  15003  H        140.7960    6.5720  177.3410 H     668  MOL668      0.2052
  15004  H        142.1140    7.3740  177.7570 H     668  MOL668      0.2052
  15005  O          2.2510   39.8620  192.7440 O.3   669  MOL669     -0.4105
  15006  H          2.3830   38.8910  192.7310 H     669  MOL669      0.2052
  15007  H          1.2900   40.0460  192.5760 H     669  MOL669      0.2052
  15008  O        114.7040    5.5090  232.1750 O.3   670  MOL670     -0.4105
  15009  H        113.8390    5.9570  232.0730 H     670  MOL670      0.2052
  15010  H        115.3960    6.2020  232.3320 H     670  MOL670      0.2052
  15011  O        143.6380  187.1370  116.9870 O.3   671  MOL671     -0.4105
  15012  H        144.1490  187.0970  117.8220 H     671  MOL671      0.2052
  15013  H        144.0310  187.8470  116.4170 H     671  MOL671      0.2052
  15014  O        160.0980  111.9490   14.8410 O.3   672  MOL672     -0.4105
  15015  H        159.1890  112.1950   15.1110 H     672  MOL672      0.2052
  15016  H        160.6530  112.7710   14.8340 H     672  MOL672      0.2052
  15017  O        107.1190   58.6620  224.8500 O.3   673  MOL673     -0.4105
  15018  H        106.2850   58.1480  224.8420 H     673  MOL673      0.2052
  15019  H        106.8900   59.6270  224.8430 H     673  MOL673      0.2052
  15020  O        145.5130  106.9260  283.5170 O.3   674  MOL674     -0.4105
  15021  H        144.8530  107.4240  282.9910 H     674  MOL674      0.2052
  15022  H        146.0020  107.5700  284.0910 H     674  MOL674      0.2052
  15023  O         59.5820  149.9110   51.2680 O.3   675  MOL675     -0.4105
  15024  H         60.5170  150.1910   51.1780 H     675  MOL675      0.2052
  15025  H         59.0530  150.6900   51.5810 H     675  MOL675      0.2052
  15026  O         55.4950  133.9040  230.0600 O.3   676  MOL676     -0.4105
  15027  H         54.6820  133.4220  230.3190 H     676  MOL676      0.2052
  15028  H         56.1570  133.2420  229.7310 H     676  MOL676      0.2052
  15029  O        120.4460   26.7880   33.7690 O.3   677  MOL677     -0.4105
  15030  H        120.4600   27.7640   33.8580 H     677  MOL677      0.2052
  15031  H        120.8020   26.3950   34.6080 H     677  MOL677      0.2052
  15032  O        199.9490  105.2490   54.4260 O.3   678  MOL678     -0.4105
  15033  H        199.7630  106.0590   54.9460 H     678  MOL678      0.2052
  15034  H        199.9570  104.4760   55.0480 H     678  MOL678      0.2052
  15035  O         27.6550  183.0390  139.2600 O.3   679  MOL679     -0.4105
  15036  H         27.8260  184.0020  139.3110 H     679  MOL679      0.2052
  15037  H         28.5280  182.5680  139.2460 H     679  MOL679      0.2052
  15038  O        158.5040  131.7730  249.5500 O.3   680  MOL680     -0.4105
  15039  H        157.6590  131.7080  250.0410 H     680  MOL680      0.2052
  15040  H        158.3890  131.3240  248.6730 H     680  MOL680      0.2052
  15041  O         53.0790   44.9100  136.1750 O.3   681  MOL681     -0.4105
  15042  H         53.1610   44.9990  135.2020 H     681  MOL681      0.2052
  15043  H         53.5720   45.6610  136.5970 H     681  MOL681      0.2052
  15044  O        131.1730  157.7190   86.8320 O.3   682  MOL682     -0.4105
  15045  H        131.2930  156.7460   86.8250 H     682  MOL682      0.2052
  15046  H        130.5800  157.9530   87.5930 H     682  MOL682      0.2052
  15047  O        165.6660  134.2200   39.3230 O.3   683  MOL683     -0.4105
  15048  H        165.8920  133.2860   39.1330 H     683  MOL683      0.2052
  15049  H        166.5090  134.7430   39.3510 H     683  MOL683      0.2052
  15050  O        110.7140  149.9580  231.9380 O.3   684  MOL684     -0.4105
  15051  H        110.5990  148.9870  231.9920 H     684  MOL684      0.2052
  15052  H        109.8180  150.3720  231.8350 H     684  MOL684      0.2052
  15053  O         40.0160  154.4860   58.5400 O.3   685  MOL685     -0.4105
  15054  H         39.7120  154.2580   59.4440 H     685  MOL685      0.2052
  15055  H         40.0640  153.6490   58.0090 H     685  MOL685      0.2052
  15056  O        167.9870  137.0090  210.4480 O.3   686  MOL686     -0.4105
  15057  H        168.7970  137.5220  210.2420 H     686  MOL686      0.2052
  15058  H        167.3390  137.6170  210.8910 H     686  MOL686      0.2052
  15059  O         86.9680  194.2390   42.1630 O.3   687  MOL687     -0.4105
  15060  H         86.1520  193.8980   41.7420 H     687  MOL687      0.2052
  15061  H         87.1120  193.7430   43.0100 H     687  MOL687      0.2052
  15062  O        124.1910   24.2700  221.4710 O.3   688  MOL688     -0.4105
  15063  H        124.3110   23.4840  222.0450 H     688  MOL688      0.2052
  15064  H        125.0830   24.5520  221.1410 H     688  MOL688      0.2052
  15065  O         92.8010  123.9820  164.6180 O.3   689  MOL689     -0.4105
  15066  H         92.8770  123.7990  163.6580 H     689  MOL689      0.2052
  15067  H         93.6310  124.4410  164.9130 H     689  MOL689      0.2052
  15068  O        113.0530  182.1500  287.0390 O.3   690  MOL690     -0.4105
  15069  H        112.9130  182.9490  286.4890 H     690  MOL690      0.2052
  15070  H        113.7850  181.6170  286.6330 H     690  MOL690      0.2052
  15071  O        161.0370  107.8860  258.3450 O.3   691  MOL691     -0.4105
  15072  H        161.0470  108.1660  257.4060 H     691  MOL691      0.2052
  15073  H        161.9670  107.6680  258.6140 H     691  MOL691      0.2052
  15074  O         25.1360  137.2440   21.7560 O.3   692  MOL692     -0.4105
  15075  H         24.1870  137.3870   21.5580 H     692  MOL692      0.2052
  15076  H         25.5840  138.1290   21.7850 H     692  MOL692      0.2052
  15077  O        114.8360  101.1390   43.0920 O.3   693  MOL693     -0.4105
  15078  H        114.9940  100.3450   43.6450 H     693  MOL693      0.2052
  15079  H        113.9980  101.5710   43.4000 H     693  MOL693      0.2052
  15080  O         38.6360    1.7720  201.3690 O.3   694  MOL694     -0.4105
  15081  H         37.9310    2.3920  201.6490 H     694  MOL694      0.2052
  15082  H         39.4630    2.2940  201.2040 H     694  MOL694      0.2052
  15083  O         71.7560  172.1260  159.7620 O.3   695  MOL695     -0.4105
  15084  H         70.8480  171.7570  159.7740 H     695  MOL695      0.2052
  15085  H         72.3990  171.3700  159.7550 H     695  MOL695      0.2052
  15086  O        109.9570   88.1300   55.7250 O.3   696  MOL696     -0.4105
  15087  H        109.7060   88.5880   56.5540 H     696  MOL696      0.2052
  15088  H        110.6580   87.4610   55.9410 H     696  MOL696      0.2052
  15089  O          0.0020  110.0290  155.0990 O.3   697  MOL697     -0.4105
  15090  H          0.6900  110.1280  154.4080 H     697  MOL697      0.2052
  15091  H          0.2530  109.2640  155.6790 H     697  MOL697      0.2052
  15092  O        135.8750  194.2760  202.9960 O.3   698  MOL698     -0.4105
  15093  H        136.2370  193.4350  202.6470 H     698  MOL698      0.2052
  15094  H        134.9750  194.4150  202.6010 H     698  MOL698      0.2052
  15095  O         17.6690   11.9170   60.3730 O.3   699  MOL699     -0.4105
  15096  H         18.0740   12.5790   60.9710 H     699  MOL699      0.2052
  15097  H         16.7380   11.7530   60.6760 H     699  MOL699      0.2052
  15098  O         65.6060   45.3850   17.3500 O.3   700  MOL700     -0.4105
  15099  H         66.5390   45.0870   17.3630 H     700  MOL700      0.2052
  15100  H         65.2470   45.3210   18.2730 H     700  MOL700      0.2052
  15101  O        155.5980   76.8940  164.1150 O.3   701  MOL701     -0.4105
  15102  H        154.9920   77.6640  164.1000 H     701  MOL701      0.2052
  15103  H        155.1090   76.1210  164.4990 H     701  MOL701      0.2052
  15104  O         38.5110  112.4400  115.3890 O.3   702  MOL702     -0.4105
  15105  H         38.3370  112.7250  114.4680 H     702  MOL702      0.2052
  15106  H         38.5080  111.4480  115.4130 H     702  MOL702      0.2052
  15107  O        153.1700   31.9450  276.5340 O.3   703  MOL703     -0.4105
  15108  H        152.3420   31.4430  276.3840 H     703  MOL703      0.2052
  15109  H        153.1250   32.7830  276.0050 H     703  MOL703      0.2052
  15110  O         75.4380   92.2810  177.4740 O.3   704  MOL704     -0.4105
  15111  H         75.3990   91.3930  177.8880 H     704  MOL704      0.2052
  15112  H         75.0100   92.2260  176.5800 H     704  MOL704      0.2052
  15113  O        199.0170  178.6470  263.0020 O.3   705  MOL705     -0.4105
  15114  H        198.5620  177.8180  262.7460 H     705  MOL705      0.2052
  15115  H        199.9890  178.5310  262.8350 H     705  MOL705      0.2052
  15116  O          0.4640  172.0800  123.7660 O.3   706  MOL706     -0.4105
  15117  H          0.2580  172.3630  124.6820 H     706  MOL706      0.2052
  15118  H          1.3110  171.5640  123.7840 H     706  MOL706      0.2052
  15119  O        120.2230  120.9230  204.1770 O.3   707  MOL707     -0.4105
  15120  H        120.3670  120.5150  205.0570 H     707  MOL707      0.2052
  15121  H        119.4390  120.4840  203.7560 H     707  MOL707      0.2052
  15122  O         95.9830  144.0780   27.1410 O.3   708  MOL708     -0.4105
  15123  H         96.3670  144.6960   26.4840 H     708  MOL708      0.2052
  15124  H         95.0100  144.0000   26.9630 H     708  MOL708      0.2052
  15125  O         30.6780  145.8060  248.1700 O.3   709  MOL709     -0.4105
  15126  H         31.4920  146.2970  248.4090 H     709  MOL709      0.2052
  15127  H         30.7250  145.5770  247.2060 H     709  MOL709      0.2052
  15128  O         53.2900  137.4980  266.1330 O.3   710  MOL710     -0.4105
  15129  H         53.8130  138.3170  266.2540 H     710  MOL710      0.2052
  15130  H         53.9090  136.7240  266.1820 H     710  MOL710      0.2052
  15131  O        121.3330   76.3910   10.9080 O.3   711  MOL711     -0.4105
  15132  H        120.3660   76.4020   11.0660 H     711  MOL711      0.2052
  15133  H        121.6140   75.4500   10.7670 H     711  MOL711      0.2052
  15134  O        181.6300   14.9430  239.4060 O.3   712  MOL712     -0.4105
  15135  H        181.7670   15.3100  238.5080 H     712  MOL712      0.2052
  15136  H        181.6320   15.6960  240.0530 H     712  MOL712      0.2052
  15137  O        132.0370   32.1340  121.9440 O.3   713  MOL713     -0.4105
  15138  H        131.6820   31.3860  121.4200 H     713  MOL713      0.2052
  15139  H        131.4140   32.9000  121.8520 H     713  MOL713      0.2052
  15140  O         71.6860  191.4000  206.4820 O.3   714  MOL714     -0.4105
  15141  H         71.0300  191.7060  207.1420 H     714  MOL714      0.2052
  15142  H         71.8060  192.1190  205.8080 H     714  MOL714      0.2052
  15143  O         88.5020   97.4570  297.7670 O.3   715  MOL715     -0.4105
  15144  H         87.9800   97.7220  298.5530 H     715  MOL715      0.2052
  15145  H         88.2500   96.5280  297.5250 H     715  MOL715      0.2052
  15146  O        178.8440   85.5560  277.1380 O.3   716  MOL716     -0.4105
  15147  H        179.8120   85.6920  277.2050 H     716  MOL716      0.2052
  15148  H        178.3970   86.4280  277.2980 H     716  MOL716      0.2052
  15149  O        194.3840   28.6720  198.8010 O.3   717  MOL717     -0.4105
  15150  H        193.7590   29.0170  198.1300 H     717  MOL717      0.2052
  15151  H        194.1170   29.0300  199.6870 H     717  MOL717      0.2052
  15152  O         34.0920   95.5220   77.7040 O.3   718  MOL718     -0.4105
  15153  H         34.6220   96.2770   78.0360 H     718  MOL718      0.2052
  15154  H         33.1500   95.6570   77.9840 H     718  MOL718      0.2052
  15155  O        109.9140   49.6610  186.2970 O.3   719  MOL719     -0.4105
  15156  H        109.1000   49.9720  186.7450 H     719  MOL719      0.2052
  15157  H        109.7240   49.5850  185.3260 H     719  MOL719      0.2052
  15158  O         46.5590   85.1850  164.0660 O.3   720  MOL720     -0.4105
  15159  H         47.4500   85.5830  164.1500 H     720  MOL720      0.2052
  15160  H         46.5800   84.5330  163.3180 H     720  MOL720      0.2052
  15161  O        181.3640   51.1050   85.1510 O.3   721  MOL721     -0.4105
  15162  H        180.4300   51.3920   85.2280 H     721  MOL721      0.2052
  15163  H        181.9450   51.8820   85.3610 H     721  MOL721      0.2052
  15164  O         64.5380   11.2660    9.5900 O.3   722  MOL722     -0.4105
  15165  H         65.4900   11.4470    9.7370 H     722  MOL722      0.2052
  15166  H         64.4400   10.8050    8.7170 H     722  MOL722      0.2052
  15167  O         40.3050   24.4560  147.0160 O.3   723  MOL723     -0.4105
  15168  H         40.1510   25.3720  146.7040 H     723  MOL723      0.2052
  15169  H         39.4990   24.1580  147.5120 H     723  MOL723      0.2052
  15170  O         63.1120  168.9630  261.0750 O.3   724  MOL724     -0.4105
  15171  H         63.8950  169.2660  260.5700 H     724  MOL724      0.2052
  15172  H         62.5000  168.4970  260.4480 H     724  MOL724      0.2052
  15173  O         15.2450  164.7560   82.4660 O.3   725  MOL725     -0.4105
  15174  H         15.5740  163.8330   82.4940 H     725  MOL725      0.2052
  15175  H         14.2540  164.7300   82.4140 H     725  MOL725      0.2052
  15176  O        187.4590  155.3500  137.7950 O.3   726  MOL726     -0.4105
  15177  H        186.9200  154.7330  137.2570 H     726  MOL726      0.2052
  15178  H        187.7050  156.1250  137.2260 H     726  MOL726      0.2052
  15179  O        185.4780  157.1930  291.7880 O.3   727  MOL727     -0.4105
  15180  H        186.1880  157.8570  291.6660 H     727  MOL727      0.2052
  15181  H        185.7030  156.3950  291.2430 H     727  MOL727      0.2052
  15182  O         96.8700  181.2460  281.2760 O.3   728  MOL728     -0.4105
  15183  H         97.8070  181.3690  281.0150 H     728  MOL728      0.2052
  15184  H         96.6150  181.9930  281.8770 H     728  MOL728      0.2052
  15185  O         62.8480  142.5440  226.6370 O.3   729  MOL729     -0.4105
  15186  H         63.1670  143.1930  227.2980 H     729  MOL729      0.2052
  15187  H         63.1740  141.6450  226.9010 H     729  MOL729      0.2052
  15188  O        107.9730    8.6020   50.6230 O.3   730  MOL730     -0.4105
  15189  H        107.1730    8.0370   50.6550 H     730  MOL730      0.2052
  15190  H        108.6270    8.1800   50.0080 H     730  MOL730      0.2052
  15191  O        154.8450  158.4540  240.6380 O.3   731  MOL731     -0.4105
  15192  H        154.9790  159.2320  241.2200 H     731  MOL731      0.2052
  15193  H        155.7050  157.9650  240.5720 H     731  MOL731      0.2052
  15194  O        114.4470  115.0740   71.5010 O.3   732  MOL732     -0.4105
  15195  H        114.1580  114.1660   71.2730 H     732  MOL732      0.2052
  15196  H        115.4390  115.0810   71.5480 H     732  MOL732      0.2052
  15197  O         43.5800   95.2820  161.0510 O.3   733  MOL733     -0.4105
  15198  H         43.2710   96.0070  161.6340 H     733  MOL733      0.2052
  15199  H         43.1000   94.4520  161.3060 H     733  MOL733      0.2052
  15200  O         41.7740   98.2540  231.3690 O.3   734  MOL734     -0.4105
  15201  H         41.6850   99.1520  230.9880 H     734  MOL734      0.2052
  15202  H         40.8650   97.9080  231.5630 H     734  MOL734      0.2052
  15203  O        102.2520   83.8850   26.9700 O.3   735  MOL735     -0.4105
  15204  H        101.3100   83.8120   27.2300 H     735  MOL735      0.2052
  15205  H        102.3860   84.7680   26.5380 H     735  MOL735      0.2052
  15206  O        179.2790   34.4130  204.8660 O.3   736  MOL736     -0.4105
  15207  H        179.5710   35.0950  205.5060 H     736  MOL736      0.2052
  15208  H        179.9470   33.6790  204.8680 H     736  MOL736      0.2052
  15209  O         93.9730  195.6500  176.8210 O.3   737  MOL737     -0.4105
  15210  H         92.9980  195.5480  176.7910 H     737  MOL737      0.2052
  15211  H         94.3820  194.7530  176.7090 H     737  MOL737      0.2052
  15212  O        199.0090  120.2040  120.5190 O.3   738  MOL738     -0.4105
  15213  H        199.0360  119.4310  119.9180 H     738  MOL738      0.2052
  15214  H        198.9730  119.8690  121.4530 H     738  MOL738      0.2052
  15215  O        142.8020  131.4040  186.8550 O.3   739  MOL739     -0.4105
  15216  H        142.0910  130.9730  186.3350 H     739  MOL739      0.2052
  15217  H        143.0660  130.7900  187.5880 H     739  MOL739      0.2052
  15218  O         71.5250  181.9130  274.4970 O.3   740  MOL740     -0.4105
  15219  H         71.7190  181.0420  274.9040 H     740  MOL740      0.2052
  15220  H         71.2570  181.7610  273.5540 H     740  MOL740      0.2052
  15221  O        102.4830   31.2630  216.2220 O.3   741  MOL741     -0.4105
  15222  H        103.3870   31.2490  215.8430 H     741  MOL741      0.2052
  15223  H        102.4390   31.9920  216.8940 H     741  MOL741      0.2052
  15224  O        191.3000  178.2470  138.4090 O.3   742  MOL742     -0.4105
  15225  H        191.6410  179.1600  138.3090 H     742  MOL742      0.2052
  15226  H        190.5410  178.2680  139.0480 H     742  MOL742      0.2052
  15227  O        148.2330  166.6210  191.5380 O.3   743  MOL743     -0.4105
  15228  H        147.2680  166.4860  191.4260 H     743  MOL743      0.2052
  15229  H        148.5630  167.1510  190.7670 H     743  MOL743      0.2052
  15230  O        152.2780  147.4420  193.8690 O.3   744  MOL744     -0.4105
  15231  H        151.9210  148.3480  193.7590 H     744  MOL744      0.2052
  15232  H        153.2270  147.4450  193.5800 H     744  MOL744      0.2052
  15233  O         43.5460  107.1530   42.7190 O.3   745  MOL745     -0.4105
  15234  H         43.1040  107.7270   42.0590 H     745  MOL745      0.2052
  15235  H         44.4210  107.5600   42.9480 H     745  MOL745      0.2052
  15236  O         19.3340   79.3440  147.6710 O.3   746  MOL746     -0.4105
  15237  H         19.2810   78.4950  148.1570 H     746  MOL746      0.2052
  15238  H         18.4160   79.6010  147.3950 H     746  MOL746      0.2052
  15239  O        108.2360    3.5710   70.7700 O.3   747  MOL747     -0.4105
  15240  H        107.6000    4.2850   70.5570 H     747  MOL747      0.2052
  15241  H        109.0960    3.9900   71.0340 H     747  MOL747      0.2052
  15242  O         93.7670  157.2560  211.9300 O.3   748  MOL748     -0.4105
  15243  H         93.6160  157.3910  210.9710 H     748  MOL748      0.2052
  15244  H         94.7220  157.0220  212.0640 H     748  MOL748      0.2052
  15245  O        131.1830  124.0780   50.3090 O.3   749  MOL749     -0.4105
  15246  H        130.3850  123.8670   50.8380 H     749  MOL749      0.2052
  15247  H        131.9610  124.1200   50.9240 H     749  MOL749      0.2052
  15248  O        133.3420   60.5380  239.6630 O.3   750  MOL750     -0.4105
  15249  H        132.5930   60.5840  239.0320 H     750  MOL750      0.2052
  15250  H        133.2560   61.2930  240.3020 H     750  MOL750      0.2052
  15251  O        104.3510  150.8190  177.7750 O.3   751  MOL751     -0.4105
  15252  H        103.7000  151.5500  177.7340 H     751  MOL751      0.2052
  15253  H        105.2610  151.2150  177.8030 H     751  MOL751      0.2052
  15254  O        125.2090  156.2460    3.3540 O.3   752  MOL752     -0.4105
  15255  H        124.5400  155.5300    3.3620 H     752  MOL752      0.2052
  15256  H        124.7320  157.1160    3.3470 H     752  MOL752      0.2052
  15257  O         58.4940    5.4100   40.3860 O.3   753  MOL753     -0.4105
  15258  H         59.0860    6.1850   40.2890 H     753  MOL753      0.2052
  15259  H         58.0650    5.2350   39.5090 H     753  MOL753      0.2052
  15260  O         12.8050  139.2400  162.3280 O.3   754  MOL754     -0.4105
  15261  H         12.3900  139.2620  161.4400 H     754  MOL754      0.2052
  15262  H         12.8920  138.2910  162.6060 H     754  MOL754      0.2052
  15263  O        170.4290   63.2220  131.3380 O.3   755  MOL755     -0.4105
  15264  H        170.8990   63.4420  130.5070 H     755  MOL755      0.2052
  15265  H        170.9950   62.5970  131.8600 H     755  MOL755      0.2052
  15266  O        147.9060  195.7230  168.7700 O.3   756  MOL756     -0.4105
  15267  H        148.4770  196.4980  168.9520 H     756  MOL756      0.2052
  15268  H        147.6040  195.3490  169.6380 H     756  MOL756      0.2052
  15269  O        176.3770   56.2080  186.3360 O.3   757  MOL757     -0.4105
  15270  H        175.5050   56.6370  186.4640 H     757  MOL757      0.2052
  15271  H        176.3030   55.5760  185.5750 H     757  MOL757      0.2052
  15272  O         35.1530   69.2760   66.4330 O.3   758  MOL758     -0.4105
  15273  H         35.5040   68.4090   66.7270 H     758  MOL758      0.2052
  15274  H         34.1620   69.2440   66.4860 H     758  MOL758      0.2052
  15275  O         22.5160  177.6020  162.0710 O.3   759  MOL759     -0.4105
  15276  H         22.9920  177.6740  161.2170 H     759  MOL759      0.2052
  15277  H         21.6010  177.9640  161.9470 H     759  MOL759      0.2052
  15278  O         14.4540  131.5540  188.7420 O.3   760  MOL760     -0.4105
  15279  H         14.9610  131.8230  189.5360 H     760  MOL760      0.2052
  15280  H         14.1360  132.3750  188.2830 H     760  MOL760      0.2052
  15281  O         28.3790   28.7590   47.7310 O.3   761  MOL761     -0.4105
  15282  H         27.6060   29.3180   47.5060 H     761  MOL761      0.2052
  15283  H         28.7420   28.3800   46.8890 H     761  MOL761      0.2052
  15284  O         84.9950   79.4620   41.3570 O.3   762  MOL762     -0.4105
  15285  H         84.8930   78.4990   41.2070 H     762  MOL762      0.2052
  15286  H         85.2410   79.8860   40.4950 H     762  MOL762      0.2052
  15287  O         77.0060   81.1300  231.3890 O.3   763  MOL763     -0.4105
  15288  H         77.3560   81.8650  230.8440 H     763  MOL763      0.2052
  15289  H         77.6620   80.3860  231.3640 H     763  MOL763      0.2052
  15290  O         68.3450  189.8010  127.2050 O.3   764  MOL764     -0.4105
  15291  H         68.0100  189.0180  126.7200 H     764  MOL764      0.2052
  15292  H         67.8140  190.5910  126.9210 H     764  MOL764      0.2052
  15293  O         21.5000   68.8790  254.1070 O.3   765  MOL765     -0.4105
  15294  H         21.8200   68.4340  253.2950 H     765  MOL765      0.2052
  15295  H         20.6170   69.2870  253.9110 H     765  MOL765      0.2052
  15296  O        146.8550  105.1340  166.8500 O.3   766  MOL766     -0.4105
  15297  H        147.8340  105.1000  166.8000 H     766  MOL766      0.2052
  15298  H        146.5670  104.6240  167.6500 H     766  MOL766      0.2052
  15299  O        176.1990  135.4520   50.4840 O.3   767  MOL767     -0.4105
  15300  H        176.2840  135.1870   51.4240 H     767  MOL767      0.2052
  15301  H        175.2680  135.2690   50.1940 H     767  MOL767      0.2052
  15302  O        183.0060   57.4380   84.8820 O.3   768  MOL768     -0.4105
  15303  H        183.8870   57.7750   84.6150 H     768  MOL768      0.2052
  15304  H        182.7650   56.6890   84.2780 H     768  MOL768      0.2052
  15305  O        106.3150  180.8740  177.8210 O.3   769  MOL769     -0.4105
  15306  H        105.9380  180.2580  178.4830 H     769  MOL769      0.2052
  15307  H        106.4600  180.3730  176.9770 H     769  MOL769      0.2052
  15308  O        136.0910  186.2400   40.3590 O.3   770  MOL770     -0.4105
  15309  H        136.8630  186.5390   39.8340 H     770  MOL770      0.2052
  15310  H        135.4720  187.0080   40.4660 H     770  MOL770      0.2052
  15311  O         73.7760   23.3520  298.6170 O.3   771  MOL771     -0.4105
  15312  H         73.3590   22.4760  298.7500 H     771  MOL771      0.2052
  15313  H         73.0710   23.9920  298.3370 H     771  MOL771      0.2052
  15314  O        103.9070   13.4100  161.9680 O.3   772  MOL772     -0.4105
  15315  H        104.1190   12.4730  161.7720 H     772  MOL772      0.2052
  15316  H        103.0960   13.6590  161.4530 H     772  MOL772      0.2052
  15317  O        153.2280   75.1410  299.5300 O.3   773  MOL773     -0.4105
  15318  H        152.3480   75.5520  299.6670 H     773  MOL773      0.2052
  15319  H        153.1160   74.1550  299.5510 H     773  MOL773      0.2052
  15320  O        171.7350  172.3450  182.9660 O.3   774  MOL774     -0.4105
  15321  H        170.7960  172.0790  183.0520 H     774  MOL774      0.2052
  15322  H        171.7640  173.2670  182.6000 H     774  MOL774      0.2052
  15323  O         16.4300   37.5040  291.4790 O.3   775  MOL775     -0.4105
  15324  H         16.1230   36.8620  290.8040 H     775  MOL775      0.2052
  15325  H         17.4220   37.5030  291.4790 H     775  MOL775      0.2052
  15326  O         83.4750   83.0630  258.8630 O.3   776  MOL776     -0.4105
  15327  H         82.6020   82.8040  259.2250 H     776  MOL776      0.2052
  15328  H         83.4840   82.8490  257.8940 H     776  MOL776      0.2052
  15329  O        181.0980  143.5850   41.0360 O.3   777  MOL777     -0.4105
  15330  H        181.3940  144.4650   40.7220 H     777  MOL777      0.2052
  15331  H        181.9010  143.0590   41.2880 H     777  MOL777      0.2052
  15332  O         64.0920  178.3540  242.2540 O.3   778  MOL778     -0.4105
  15333  H         64.7910  177.9180  241.7230 H     778  MOL778      0.2052
  15334  H         63.8620  179.2150  241.8190 H     778  MOL778      0.2052
  15335  O        181.8140   51.2910   81.8850 O.3   779  MOL779     -0.4105
  15336  H        180.8850   51.0950   81.6420 H     779  MOL779      0.2052
  15337  H        181.9830   52.2540   81.7150 H     779  MOL779      0.2052
  15338  O        116.6260   95.6880  276.9060 O.3   780  MOL780     -0.4105
  15339  H        115.7560   95.7650  277.3510 H     780  MOL780      0.2052
  15340  H        116.9810   94.7770  277.0740 H     780  MOL780      0.2052
  15341  O         46.8130  102.7360  190.3110 O.3   781  MOL781     -0.4105
  15342  H         46.1720  102.0460  190.5830 H     781  MOL781      0.2052
  15343  H         46.5460  103.5920  190.7360 H     781  MOL781      0.2052
  15344  O        118.2380  117.2510   56.3880 O.3   782  MOL782     -0.4105
  15345  H        118.5450  117.5940   57.2530 H     782  MOL782      0.2052
  15346  H        118.8100  116.4790   56.1400 H     782  MOL782      0.2052
  15347  O         41.6790  143.6190   42.4520 O.3   783  MOL783     -0.4105
  15348  H         42.4940  143.1120   42.2530 H     783  MOL783      0.2052
  15349  H         41.9230  144.5770   42.5400 H     783  MOL783      0.2052
  15350  O        104.6660    2.3070  118.2590 O.3   784  MOL784     -0.4105
  15351  H        103.7500    2.0320  118.0450 H     784  MOL784      0.2052
  15352  H        104.7340    3.2880  118.1290 H     784  MOL784      0.2052
  15353  O        172.1090  189.7920  298.1110 O.3   785  MOL785     -0.4105
  15354  H        172.8900  189.5140  297.5890 H     785  MOL785      0.2052
  15355  H        172.4220  190.3670  298.8570 H     785  MOL785      0.2052
  15356  O         99.8800   23.1250  269.6660 O.3   786  MOL786     -0.4105
  15357  H        100.7210   22.6700  269.8780 H     786  MOL786      0.2052
  15358  H         99.1900   22.4340  269.4860 H     786  MOL786      0.2052
  15359  O        161.1220  105.3340  248.2280 O.3   787  MOL787     -0.4105
  15360  H        160.7500  104.4710  248.5070 H     787  MOL787      0.2052
  15361  H        162.1020  105.3130  248.3780 H     787  MOL787      0.2052
  15362  O        100.6930    4.0400   99.9940 O.3   788  MOL788     -0.4105
  15363  H        101.4480    4.6360  100.1800 H     788  MOL788      0.2052
  15364  H        101.0170    3.2970   99.4220 H     788  MOL788      0.2052
  15365  O         25.1700   99.0750  150.6250 O.3   789  MOL789     -0.4105
  15366  H         24.6970   98.6900  151.3920 H     789  MOL789      0.2052
  15367  H         24.8870   98.5850  149.8090 H     789  MOL789      0.2052
  15368  O         22.5140  123.9000    3.4270 O.3   790  MOL790     -0.4105
  15369  H         22.8300  124.8270    3.4070 H     790  MOL790      0.2052
  15370  H         23.2920  123.3090    3.6030 H     790  MOL790      0.2052
  15371  O        131.8050  132.2030  292.6580 O.3   791  MOL791     -0.4105
  15372  H        130.8860  131.8650  292.7010 H     791  MOL791      0.2052
  15373  H        132.0590  132.2910  291.7030 H     791  MOL791      0.2052
  15374  O        133.9980  107.9280  216.2720 O.3   792  MOL792     -0.4105
  15375  H        133.4500  107.3080  216.7970 H     792  MOL792      0.2052
  15376  H        134.7990  107.4380  215.9500 H     792  MOL792      0.2052
  15377  O         18.6710   79.7150  293.1870 O.3   793  MOL793     -0.4105
  15378  H         18.9150   80.1140  292.3260 H     793  MOL793      0.2052
  15379  H         19.5030   79.5560  293.7030 H     793  MOL793      0.2052
  15380  O         12.6530  181.1360  193.8110 O.3   794  MOL794     -0.4105
  15381  H         12.4090  180.9740  192.8760 H     794  MOL794      0.2052
  15382  H         13.6390  181.2370  193.8610 H     794  MOL794      0.2052
  15383  O        196.5800  168.2830  202.4770 O.3   795  MOL795     -0.4105
  15384  H        195.9970  168.4820  201.7140 H     795  MOL795      0.2052
  15385  H        196.0920  167.6750  203.0900 H     795  MOL795      0.2052
  15386  O         50.8160  176.0950  150.5600 O.3   796  MOL796     -0.4105
  15387  H         50.7240  175.1190  150.5600 H     796  MOL796      0.2052
  15388  H         49.9060  176.4920  150.5670 H     796  MOL796      0.2052
  15389  O          9.1770    1.2080  107.4150 O.3   797  MOL797     -0.4105
  15390  H         10.1100    1.4160  107.6310 H     797  MOL797      0.2052
  15391  H          8.8220    1.9330  106.8390 H     797  MOL797      0.2052
  15392  O        163.0810  104.5780  281.8320 O.3   798  MOL798     -0.4105
  15393  H        162.2560  104.0530  281.7650 H     798  MOL798      0.2052
  15394  H        163.3140  104.9080  280.9260 H     798  MOL798      0.2052
  15395  O        195.8110   33.6770  222.1150 O.3   799  MOL799     -0.4105
  15396  H        195.9730   33.9880  223.0300 H     799  MOL799      0.2052
  15397  H        194.8710   33.3650  222.0550 H     799  MOL799      0.2052
  15398  O        133.2030  135.8070   62.7410 O.3   800  MOL800     -0.4105
  15399  H        133.4080  135.4430   61.8540 H     800  MOL800      0.2052
  15400  H        132.2690  136.1410   62.7310 H     800  MOL800      0.2052
  15401  O         66.5330   27.1970  253.9590 O.3   801  MOL801     -0.4105
  15402  H         67.1850   27.0010  253.2540 H     801  MOL801      0.2052
  15403  H         65.9430   26.4060  254.0650 H     801  MOL801      0.2052
  15404  O         13.0830   63.9360  278.8800 O.3   802  MOL802     -0.4105
  15405  H         12.4420   63.2450  279.1520 H     802  MOL802      0.2052
  15406  H         13.8320   63.9380  279.5310 H     802  MOL802      0.2052
  15407  O         84.7530   44.9260  219.3240 O.3   803  MOL803     -0.4105
  15408  H         84.5520   44.0250  219.6550 H     803  MOL803      0.2052
  15409  H         85.3480   44.8410  218.5350 H     803  MOL803      0.2052
  15410  O          6.7320    7.5560  213.5530 O.3   804  MOL804     -0.4105
  15411  H          6.9240    6.6960  213.1220 H     804  MOL804      0.2052
  15412  H          5.7690    7.7570  213.4280 H     804  MOL804      0.2052
  15413  O        187.9220   49.5990   27.9710 O.3   805  MOL805     -0.4105
  15414  H        188.4760   48.9980   28.5130 H     805  MOL805      0.2052
  15415  H        188.3040   50.5130   28.0330 H     805  MOL805      0.2052
  15416  O        180.1740  127.7650  185.4020 O.3   806  MOL806     -0.4105
  15417  H        180.0330  128.7230  185.2490 H     806  MOL806      0.2052
  15418  H        181.0990  127.5390  185.1250 H     806  MOL806      0.2052
  15419  O        186.5710   48.2980  107.8300 O.3   807  MOL807     -0.4105
  15420  H        186.0370   47.8160  107.1640 H     807  MOL807      0.2052
  15421  H        187.0010   47.6300  108.4250 H     807  MOL807      0.2052
  15422  O        116.1480    2.0770  289.9260 O.3   808  MOL808     -0.4105
  15423  H        116.8370    2.7560  289.7680 H     808  MOL808      0.2052
  15424  H        115.6760    2.3040  290.7690 H     808  MOL808      0.2052
  15425  O          8.8880  103.5370  206.9070 O.3   809  MOL809     -0.4105
  15426  H          9.4440  102.7870  206.6070 H     809  MOL809      0.2052
  15427  H          7.9440  103.2330  206.9310 H     809  MOL809      0.2052
  15428  O        121.6500   27.8130   86.3250 O.3   810  MOL810     -0.4105
  15429  H        120.7310   27.9500   86.0130 H     810  MOL810      0.2052
  15430  H        121.7710   26.8470   86.5180 H     810  MOL810      0.2052
  15431  O         56.7580  191.3790  235.8020 O.3   811  MOL811     -0.4105
  15432  H         56.5130  190.7580  236.5190 H     811  MOL811      0.2052
  15433  H         57.7480  191.4410  235.7690 H     811  MOL811      0.2052
  15434  O         33.7120   52.5120  165.7550 O.3   812  MOL812     -0.4105
  15435  H         33.0310   52.2780  166.4200 H     812  MOL812      0.2052
  15436  H         33.8150   51.7450  165.1330 H     812  MOL812      0.2052
  15437  O         30.3100  121.8970   92.9230 O.3   813  MOL813     -0.4105
  15438  H         30.7730  122.7120   93.2070 H     813  MOL813      0.2052
  15439  H         29.4010  121.9010   93.3220 H     813  MOL813      0.2052
  15440  O        106.0920   33.4060   51.9430 O.3   814  MOL814     -0.4105
  15441  H        106.4690   33.4770   51.0410 H     814  MOL814      0.2052
  15442  H        105.3720   34.0830   52.0320 H     814  MOL814      0.2052
  15443  O         37.3420    6.4790  176.2010 O.3   815  MOL815     -0.4105
  15444  H         38.1400    5.9920  175.9060 H     815  MOL815      0.2052
  15445  H         36.6060    6.2820  175.5660 H     815  MOL815      0.2052
  15446  O         37.9480   16.8200  211.6670 O.3   816  MOL816     -0.4105
  15447  H         37.9570   17.7360  212.0160 H     816  MOL816      0.2052
  15448  H         38.5200   16.2590  212.2530 H     816  MOL816      0.2052
  15449  O         18.8810  109.2170  129.8490 O.3   817  MOL817     -0.4105
  15450  H         18.0780  108.7080  130.0870 H     817  MOL817      0.2052
  15451  H         18.6150  110.1600  129.6920 H     817  MOL817      0.2052
  15452  O        162.8220   11.9460  110.8630 O.3   818  MOL818     -0.4105
  15453  H        162.9760   12.8180  110.4430 H     818  MOL818      0.2052
  15454  H        161.8840   11.6760  110.6830 H     818  MOL818      0.2052
  15455  O        158.0600  105.5800    9.9280 O.3   819  MOL819     -0.4105
  15456  H        157.5030  106.2740    9.5180 H     819  MOL819      0.2052
  15457  H        157.7670  104.7000    9.5770 H     819  MOL819      0.2052
  15458  O         80.8770    8.3300  248.3580 O.3   820  MOL820     -0.4105
  15459  H         80.1030    8.6420  247.8430 H     820  MOL820      0.2052
  15460  H         81.3550    7.6480  247.8180 H     820  MOL820      0.2052
  15461  O         38.7090   76.6920  275.2000 O.3   821  MOL821     -0.4105
  15462  H         37.7340   76.7500  275.2710 H     821  MOL821      0.2052
  15463  H         38.9410   75.8040  274.8240 H     821  MOL821      0.2052
  15464  O         56.7250  143.4700  218.9780 O.3   822  MOL822     -0.4105
  15465  H         55.7980  143.5790  219.2760 H     822  MOL822      0.2052
  15466  H         56.9220  142.4990  218.9260 H     822  MOL822      0.2052
  15467  O        141.3480   53.5640  276.2360 O.3   823  MOL823     -0.4105
  15468  H        142.0580   53.8240  275.6120 H     823  MOL823      0.2052
  15469  H        141.2000   52.5870  276.1500 H     823  MOL823      0.2052
  15470  O        169.4860   34.2470  162.6740 O.3   824  MOL824     -0.4105
  15471  H        170.2280   34.8870  162.6960 H     824  MOL824      0.2052
  15472  H        168.6400   34.7570  162.5790 H     824  MOL824      0.2052
  15473  O         79.5590  189.2990  225.9480 O.3   825  MOL825     -0.4105
  15474  H         78.6680  189.6830  226.0830 H     825  MOL825      0.2052
  15475  H         79.9600  189.7190  225.1440 H     825  MOL825      0.2052
  15476  O         93.5190   12.1130  219.9540 O.3   826  MOL826     -0.4105
  15477  H         93.5760   12.7590  220.6890 H     826  MOL826      0.2052
  15478  H         93.1440   11.2670  220.3120 H     826  MOL826      0.2052
  15479  O        194.0360  166.9640  255.2410 O.3   827  MOL827     -0.4105
  15480  H        193.1920  166.4660  255.2190 H     827  MOL827      0.2052
  15481  H        194.6350  166.5910  254.5430 H     827  MOL827      0.2052
  15482  O        106.5840   37.1450  105.6910 O.3   828  MOL828     -0.4105
  15483  H        106.2780   36.2770  106.0300 H     828  MOL828      0.2052
  15484  H        107.5740   37.1240  105.6360 H     828  MOL828      0.2052
  15485  O        165.7090  196.8990  154.5590 O.3   829  MOL829     -0.4105
  15486  H        164.7840  196.6400  154.7500 H     829  MOL829      0.2052
  15487  H        165.7570  197.2070  153.6170 H     829  MOL829      0.2052
  15488  O        124.9620  191.0750    9.6460 O.3   830  MOL830     -0.4105
  15489  H        125.7700  190.5800    9.8940 H     830  MOL830      0.2052
  15490  H        125.1780  192.0440    9.6470 H     830  MOL830      0.2052
  15491  O        172.9720  178.0170  212.6100 O.3   831  MOL831     -0.4105
  15492  H        172.8990  177.2540  212.0000 H     831  MOL831      0.2052
  15493  H        172.2110  178.6290  212.4350 H     831  MOL831      0.2052
  15494  O        151.1730   12.4610  221.7550 O.3   832  MOL832     -0.4105
  15495  H        151.9660   11.8900  221.6840 H     832  MOL832      0.2052
  15496  H        150.3700   11.8950  221.6130 H     832  MOL832      0.2052
  15497  O        104.7880  128.7160  184.2400 O.3   833  MOL833     -0.4105
  15498  H        105.5480  128.4770  183.6690 H     833  MOL833      0.2052
  15499  H        104.9190  128.2890  185.1260 H     833  MOL833      0.2052
  15500  O        104.1930  122.8710  297.9050 O.3   834  MOL834     -0.4105
  15501  H        104.9810  123.2290  298.3640 H     834  MOL834      0.2052
  15502  H        104.3260  121.8960  297.7760 H     834  MOL834      0.2052
  15503  O        136.5950  183.0220  264.8320 O.3   835  MOL835     -0.4105
  15504  H        136.9590  183.4290  265.6460 H     835  MOL835      0.2052
  15505  H        136.5270  183.7270  264.1360 H     835  MOL835      0.2052
  15506  O        133.6210  169.8170  292.3830 O.3   836  MOL836     -0.4105
  15507  H        133.8340  170.6690  291.9470 H     836  MOL836      0.2052
  15508  H        132.6330  169.7240  292.4160 H     836  MOL836      0.2052
  15509  O         56.3410  185.4530   92.6770 O.3   837  MOL837     -0.4105
  15510  H         56.6340  186.2650   93.1410 H     837  MOL837      0.2052
  15511  H         56.5220  185.5670   91.7080 H     837  MOL837      0.2052
  15512  O         56.4900    2.9140   86.7260 O.3   838  MOL838     -0.4105
  15513  H         55.8470    2.2890   86.3300 H     838  MOL838      0.2052
  15514  H         56.3930    2.8750   87.7130 H     838  MOL838      0.2052
  15515  O         52.2360  186.9870   51.0680 O.3   839  MOL839     -0.4105
  15516  H         51.9090  187.0170   51.9910 H     839  MOL839      0.2052
  15517  H         52.0920  187.8790   50.6570 H     839  MOL839      0.2052
  15518  O        186.5260   31.8170  241.7850 O.3   840  MOL840     -0.4105
  15519  H        187.0910   31.5240  241.0410 H     840  MOL840      0.2052
  15520  H        186.6350   31.1720  242.5310 H     840  MOL840      0.2052
  15521  O        167.6480   65.6170   76.1280 O.3   841  MOL841     -0.4105
  15522  H        168.0340   64.8920   76.6620 H     841  MOL841      0.2052
  15523  H        167.2070   65.2170   75.3340 H     841  MOL841      0.2052
  15524  O         21.3890   65.0060  267.9180 O.3   842  MOL842     -0.4105
  15525  H         21.5080   65.8040  267.3620 H     842  MOL842      0.2052
  15526  H         21.5750   65.2540  268.8610 H     842  MOL842      0.2052
  15527  O        122.4180  141.4160   26.9470 O.3   843  MOL843     -0.4105
  15528  H        121.9220  141.7350   26.1640 H     843  MOL843      0.2052
  15529  H        121.7930  141.3780   27.7160 H     843  MOL843      0.2052
  15530  O         74.3540  108.1370    7.5060 O.3   844  MOL844     -0.4105
  15531  H         75.1380  107.6840    7.8820 H     844  MOL844      0.2052
  15532  H         74.4450  109.1100    7.6790 H     844  MOL844      0.2052
  15533  O         37.6560   54.0360  110.2470 O.3   845  MOL845     -0.4105
  15534  H         38.3000   53.8730  110.9680 H     845  MOL845      0.2052
  15535  H         36.7410   53.9480  110.6210 H     845  MOL845      0.2052
  15536  O        137.9130  173.1790  124.2800 O.3   846  MOL846     -0.4105
  15537  H        138.1910  172.2400  124.2550 H     846  MOL846      0.2052
  15538  H        138.7280  173.7450  124.2660 H     846  MOL846      0.2052
  15539  O        188.3250   88.4230  158.5590 O.3   847  MOL847     -0.4105
  15540  H        187.4430   88.0280  158.3990 H     847  MOL847      0.2052
  15541  H        188.6040   88.1970  159.4840 H     847  MOL847      0.2052
  15542  O        138.0400  128.9780  214.8390 O.3   848  MOL848     -0.4105
  15543  H        138.8690  129.2610  215.2800 H     848  MOL848      0.2052
  15544  H        138.0370  127.9870  214.7880 H     848  MOL848      0.2052
  15545  O        169.9030   59.7910  223.6690 O.3   849  MOL849     -0.4105
  15546  H        169.4310   58.9360  223.7550 H     849  MOL849      0.2052
  15547  H        170.4560   59.7580  222.8460 H     849  MOL849      0.2052
  15548  O         13.3690   37.0150  211.2170 O.3   850  MOL850     -0.4105
  15549  H         14.1850   37.0630  211.7580 H     850  MOL850      0.2052
  15550  H         13.5060   36.3330  210.5100 H     850  MOL850      0.2052
  15551  O         59.9190   45.3680    1.7960 O.3   851  MOL851     -0.4105
  15552  H         59.6280   46.2900    1.6350 H     851  MOL851      0.2052
  15553  H         59.1600   44.7630    1.5930 H     851  MOL851      0.2052
  15554  O        190.4820   68.9290   95.6640 O.3   852  MOL852     -0.4105
  15555  H        190.5390   67.9510   95.6340 H     852  MOL852      0.2052
  15556  H        189.5480   69.1920   95.4550 H     852  MOL852      0.2052
  15557  O         46.1130  142.7030  191.0030 O.3   853  MOL853     -0.4105
  15558  H         46.9670  142.6580  191.4810 H     853  MOL853      0.2052
  15559  H         45.9830  143.6350  190.6870 H     853  MOL853      0.2052
  15560  O        104.2740  143.5000    7.5610 O.3   854  MOL854     -0.4105
  15561  H        104.0890  143.2070    8.4780 H     854  MOL854      0.2052
  15562  H        104.0050  142.7730    6.9420 H     854  MOL854      0.2052
  15563  O        113.2310   99.9520  227.0540 O.3   855  MOL855     -0.4105
  15564  H        113.9980   99.8900  226.4460 H     855  MOL855      0.2052
  15565  H        113.2550   99.1710  227.6650 H     855  MOL855      0.2052
  15566  O        184.7350  161.6570   62.2360 O.3   856  MOL856     -0.4105
  15567  H        184.8710  162.3170   61.5240 H     856  MOL856      0.2052
  15568  H        183.7930  161.7190   62.5400 H     856  MOL856      0.2052
  15569  O        168.5410  189.9680  262.8540 O.3   857  MOL857     -0.4105
  15570  H        169.4010  189.8320  262.4050 H     857  MOL857      0.2052
  15571  H        168.0470  190.6810  262.3700 H     857  MOL857      0.2052
  15572  O        155.6350   10.5130  245.9860 O.3   858  MOL858     -0.4105
  15573  H        155.1490   10.6980  246.8170 H     858  MOL858      0.2052
  15574  H        156.4870   11.0210  246.0060 H     858  MOL858      0.2052
  15575  O        144.8790   15.7530   11.1470 O.3   859  MOL859     -0.4105
  15576  H        144.0240   15.6630   11.6190 H     859  MOL859      0.2052
  15577  H        145.2460   16.6550   11.3390 H     859  MOL859      0.2052
  15578  O        106.8530   84.1300  272.1740 O.3   860  MOL860     -0.4105
  15579  H        107.7290   84.2090  271.7430 H     860  MOL860      0.2052
  15580  H        106.5830   83.1750  272.1550 H     860  MOL860      0.2052
  15581  O          6.6920   18.6910   64.0860 O.3   861  MOL861     -0.4105
  15582  H          7.4870   19.1610   63.7570 H     861  MOL861      0.2052
  15583  H          6.8230   18.4980   65.0500 H     861  MOL861      0.2052
  15584  O         44.3440   10.8920   50.1600 O.3   862  MOL862     -0.4105
  15585  H         44.5580    9.9910   50.4790 H     862  MOL862      0.2052
  15586  H         44.2920   10.8660   49.1690 H     862  MOL862      0.2052
  15587  O        151.3830  193.9720  165.4440 O.3   863  MOL863     -0.4105
  15588  H        151.5710  194.6350  164.7480 H     863  MOL863      0.2052
  15589  H        151.7770  193.1060  165.1620 H     863  MOL863      0.2052
  15590  O        154.3580  181.6520  269.1240 O.3   864  MOL864     -0.4105
  15591  H        155.1240  181.1690  268.7490 H     864  MOL864      0.2052
  15592  H        154.3360  181.4890  270.1020 H     864  MOL864      0.2052
  15593  O        191.1940   76.8240  285.3330 O.3   865  MOL865     -0.4105
  15594  H        191.7910   76.7880  284.5560 H     865  MOL865      0.2052
  15595  H        190.4920   76.1330  285.2180 H     865  MOL865      0.2052
  15596  O        189.9990    9.8980   63.1230 O.3   866  MOL866     -0.4105
  15597  H        189.2440   10.5100   63.2440 H     866  MOL866      0.2052
  15598  H        189.7280    9.1920   62.4800 H     866  MOL866      0.2052
  15599  O         80.1730   63.4630   20.2740 O.3   867  MOL867     -0.4105
  15600  H         80.8600   63.9180   19.7440 H     867  MOL867      0.2052
  15601  H         79.7870   64.1190   20.9110 H     867  MOL867      0.2052
  15602  O         73.1990  190.1370  299.2690 O.3   868  MOL868     -0.4105
  15603  H         74.1530  189.9500  299.3910 H     868  MOL868      0.2052
  15604  H         72.6980  189.6870  299.9980 H     868  MOL868      0.2052
  15605  O        170.9250  115.2240  295.6190 O.3   869  MOL869     -0.4105
  15606  H        170.3680  115.3530  296.4140 H     869  MOL869      0.2052
  15607  H        171.4240  116.0640  295.4500 H     869  MOL869      0.2052
  15608  O          9.3860  178.5770  116.3920 O.3   870  MOL870     -0.4105
  15609  H          9.7240  179.1150  115.6450 H     870  MOL870      0.2052
  15610  H          8.4220  178.4010  116.2360 H     870  MOL870      0.2052
  15611  O         16.9970   74.9190  294.1700 O.3   871  MOL871     -0.4105
  15612  H         17.6870   74.3990  294.6310 H     871  MOL871      0.2052
  15613  H         17.4460   75.5870  293.5900 H     871  MOL871      0.2052
  15614  O        102.0010   20.5360  266.5870 O.3   872  MOL872     -0.4105
  15615  H        101.3810   20.2240  267.2790 H     872  MOL872      0.2052
  15616  H        102.9160   20.2420  266.8330 H     872  MOL872      0.2052
  15617  O         20.8320   54.6660  132.9370 O.3   873  MOL873     -0.4105
  15618  H         21.2770   53.7930  132.9100 H     873  MOL873      0.2052
  15619  H         19.8520   54.5140  132.9680 H     873  MOL873      0.2052
  15620  O        171.6380  135.6460  284.9360 O.3   874  MOL874     -0.4105
  15621  H        171.6670  134.6830  284.7540 H     874  MOL874      0.2052
  15622  H        172.1660  136.1100  284.2360 H     874  MOL874      0.2052
  15623  O        159.8540   33.3030   37.2650 O.3   875  MOL875     -0.4105
  15624  H        159.6190   33.9550   37.9580 H     875  MOL875      0.2052
  15625  H        160.7060   32.8660   37.5270 H     875  MOL875      0.2052
  15626  O         58.1660  189.4050    0.1670 O.3   876  MOL876     -0.4105
  15627  H         57.7910  188.5140    0.0050 H     876  MOL876      0.2052
  15628  H         58.5350  189.4240    1.0880 H     876  MOL876      0.2052
  15629  O         17.5970  196.7890  203.6860 O.3   877  MOL877     -0.4105
  15630  H         17.1410  195.9320  203.8200 H     877  MOL877      0.2052
  15631  H         16.9100  197.4800  203.4960 H     877  MOL877      0.2052
  15632  O        124.1260  165.4100  196.4650 O.3   878  MOL878     -0.4105
  15633  H        124.4900  166.3200  196.4640 H     878  MOL878      0.2052
  15634  H        123.7460  165.2280  197.3630 H     878  MOL878      0.2052
  15635  O         16.6300   73.6820  239.9820 O.3   879  MOL879     -0.4105
  15636  H         16.6720   72.7050  240.0530 H     879  MOL879      0.2052
  15637  H         15.6770   73.9470  239.9050 H     879  MOL879      0.2052
  15638  O        167.1410   33.3090  195.2150 O.3   880  MOL880     -0.4105
  15639  H        167.7850   32.8670  194.6220 H     880  MOL880      0.2052
  15640  H        166.4480   33.7430  194.6520 H     880  MOL880      0.2052
  15641  O         66.7750  101.1610  248.7040 O.3   881  MOL881     -0.4105
  15642  H         66.1300  101.6040  249.2940 H     881  MOL881      0.2052
  15643  H         67.5430  101.7750  248.5670 H     881  MOL881      0.2052
  15644  O        100.2020  159.3490  233.4850 O.3   882  MOL882     -0.4105
  15645  H        100.2170  158.5210  234.0100 H     882  MOL882      0.2052
  15646  H        101.1290  159.6990  233.4310 H     882  MOL882      0.2052
  15647  O         12.5050   71.8580  199.2290 O.3   883  MOL883     -0.4105
  15648  H         11.8820   71.8960  198.4740 H     883  MOL883      0.2052
  15649  H         13.3440   72.3150  198.9620 H     883  MOL883      0.2052
  15650  O        109.5710   13.3450   49.5790 O.3   884  MOL884     -0.4105
  15651  H        108.6310   13.5650   49.7500 H     884  MOL884      0.2052
  15652  H        109.6130   12.4250   49.2090 H     884  MOL884      0.2052
  15653  O        180.7940   90.0180   71.0130 O.3   885  MOL885     -0.4105
  15654  H        181.2000   90.1400   70.1300 H     885  MOL885      0.2052
  15655  H        180.0010   89.4310   70.9120 H     885  MOL885      0.2052
  15656  O        173.7200   70.2740  220.5270 O.3   886  MOL886     -0.4105
  15657  H        173.6930   70.0910  221.4890 H     886  MOL886      0.2052
  15658  H        173.0650   70.9920  220.3280 H     886  MOL886      0.2052
  15659  O         75.9250    4.4030  162.7980 O.3   887  MOL887     -0.4105
  15660  H         74.9950    4.6140  163.0220 H     887  MOL887      0.2052
  15661  H         76.1760    4.9240  161.9920 H     887  MOL887      0.2052
  15662  O         63.4150  156.6460  270.5250 O.3   888  MOL888     -0.4105
  15663  H         62.7290  157.0570  271.0930 H     888  MOL888      0.2052
  15664  H         62.9770  155.9620  269.9560 H     888  MOL888      0.2052
  15665  O        135.1870   44.9400  121.5650 O.3   889  MOL889     -0.4105
  15666  H        136.0270   45.3100  121.2210 H     889  MOL889      0.2052
  15667  H        134.4700   45.1350  120.9070 H     889  MOL889      0.2052
  15668  O        199.0970   51.4910  177.6750 O.3   890  MOL890     -0.4105
  15669  H        199.4930   51.0970  176.8700 H     890  MOL890      0.2052
  15670  H        199.8130   51.9620  178.1750 H     890  MOL890      0.2052
  15671  O        114.9100  139.9420  248.8020 O.3   891  MOL891     -0.4105
  15672  H        115.7500  139.9420  249.3060 H     891  MOL891      0.2052
  15673  H        114.8820  139.1210  248.2450 H     891  MOL891      0.2052
  15674  O         21.4300   50.5800  154.2240 O.3   892  MOL892     -0.4105
  15675  H         22.3090   50.5770  154.6560 H     892  MOL892      0.2052
  15676  H         20.7430   50.7500  154.9190 H     892  MOL892      0.2052
  15677  O        125.7610   98.6110  258.8620 O.3   893  MOL893     -0.4105
  15678  H        125.1420   99.1500  258.3270 H     893  MOL893      0.2052
  15679  H        125.3570   97.7140  258.9940 H     893  MOL893      0.2052
  15680  O        107.2210  194.2020  152.0780 O.3   894  MOL894     -0.4105
  15681  H        106.8870  195.0980  152.2920 H     894  MOL894      0.2052
  15682  H        106.4510  193.6440  151.7910 H     894  MOL894      0.2052
  15683  O        170.8770  100.8510  200.3220 O.3   895  MOL895     -0.4105
  15684  H        170.5100  100.0790  199.8430 H     895  MOL895      0.2052
  15685  H        171.4210  101.3820  199.6850 H     895  MOL895      0.2052
  15686  O        101.1290   41.8990   55.3170 O.3   896  MOL896     -0.4105
  15687  H        100.7090   41.0360   55.5150 H     896  MOL896      0.2052
  15688  H        100.4110   42.5710   55.1870 H     896  MOL896      0.2052
  15689  O         76.8310   99.3430  181.5250 O.3   897  MOL897     -0.4105
  15690  H         76.1200   98.6720  181.5930 H     897  MOL897      0.2052
  15691  H         77.4910   99.1710  182.2450 H     897  MOL897      0.2052
  15692  O          2.8850   40.5520  267.2330 O.3   898  MOL898     -0.4105
  15693  H          3.5380   41.0360  266.6850 H     898  MOL898      0.2052
  15694  H          2.2220   40.1300  266.6270 H     898  MOL898      0.2052
  15695  O         50.4770  156.1040  182.1680 O.3   899  MOL899     -0.4105
  15696  H         51.3280  155.9060  182.6120 H     899  MOL899      0.2052
  15697  H         50.4660  157.0680  181.9330 H     899  MOL899      0.2052
  15698  O        168.4320  105.7230  270.6250 O.3   900  MOL900     -0.4105
  15699  H        168.2660  104.8590  270.1950 H     900  MOL900      0.2052
  15700  H        168.1770  106.4410  269.9890 H     900  MOL900      0.2052
  15701  O         31.5290  189.7490  104.8620 O.3   901  MOL901     -0.4105
  15702  H         31.1280  189.5910  105.7430 H     901  MOL901      0.2052
  15703  H         32.4810  189.4740  104.9010 H     901  MOL901      0.2052
  15704  O        123.6320   38.9730   88.5690 O.3   902  MOL902     -0.4105
  15705  H        123.8150   38.0100   88.5700 H     902  MOL902      0.2052
  15706  H        122.6490   39.1030   88.5730 H     902  MOL902      0.2052
  15707  O        160.1960   46.3600  126.7020 O.3   903  MOL903     -0.4105
  15708  H        160.9210   47.0180  126.6570 H     903  MOL903      0.2052
  15709  H        159.8710   46.3190  127.6390 H     903  MOL903      0.2052
  15710  O         38.3410  195.1540    5.1750 O.3   904  MOL904     -0.4105
  15711  H         38.8100  194.5350    4.5760 H     904  MOL904      0.2052
  15712  H         38.7730  196.0440    5.1010 H     904  MOL904      0.2052
  15713  O         44.4360   90.0610  285.9460 O.3   905  MOL905     -0.4105
  15714  H         45.2140   89.8370  286.4980 H     905  MOL905      0.2052
  15715  H         44.6080   89.7430  285.0220 H     905  MOL905      0.2052
  15716  O         36.6440  103.8580   98.9650 O.3   906  MOL906     -0.4105
  15717  H         37.6090  103.8700   99.1350 H     906  MOL906      0.2052
  15718  H         36.4170  102.9970   98.5270 H     906  MOL906      0.2052
  15719  O          2.8270   95.2620   51.1450 O.3   907  MOL907     -0.4105
  15720  H          1.8970   95.2630   50.8380 H     907  MOL907      0.2052
  15721  H          3.0930   94.3240   51.3270 H     907  MOL907      0.2052
  15722  O         28.0470  124.8360  222.5260 O.3   908  MOL908     -0.4105
  15723  H         27.3360  124.3150  222.0970 H     908  MOL908      0.2052
  15724  H         28.1160  125.7090  222.0600 H     908  MOL908      0.2052
  15725  O        108.6710  181.0840  196.5660 O.3   909  MOL909     -0.4105
  15726  H        109.2160  180.2760  196.4650 H     909  MOL909      0.2052
  15727  H        107.7180  180.8110  196.6100 H     909  MOL909      0.2052
  15728  O         29.0370   66.9730  216.0260 O.3   910  MOL910     -0.4105
  15729  H         28.3730   66.4480  216.5190 H     910  MOL910      0.2052
  15730  H         28.7130   67.9090  215.9690 H     910  MOL910      0.2052
  15731  O         21.5240   45.1750  168.6470 O.3   911  MOL911     -0.4105
  15732  H         21.7030   46.0450  168.2330 H     911  MOL911      0.2052
  15733  H         22.2400   44.9930  169.3100 H     911  MOL911      0.2052
  15734  O        157.3360  188.3040   72.4930 O.3   912  MOL912     -0.4105
  15735  H        158.1960  188.7690   72.4330 H     912  MOL912      0.2052
  15736  H        157.4660  187.4780   73.0270 H     912  MOL912      0.2052
  15737  O        125.9300   40.3480  230.8190 O.3   913  MOL913     -0.4105
  15738  H        126.4910   41.0900  230.5100 H     913  MOL913      0.2052
  15739  H        126.1320   39.5530  230.2610 H     913  MOL913      0.2052
  15740  O        112.9600    6.3870   75.5760 O.3   914  MOL914     -0.4105
  15741  H        113.8010    6.1130   75.9970 H     914  MOL914      0.2052
  15742  H        113.1380    7.1870   75.0160 H     914  MOL914      0.2052
  15743  O        179.4360    0.8310   72.0850 O.3   915  MOL915     -0.4105
  15744  H        179.4790    0.1870   72.8220 H     915  MOL915      0.2052
  15745  H        178.5860    1.3370   72.1640 H     915  MOL915      0.2052
  15746  O        135.6910  105.8770  198.7210 O.3   916  MOL916     -0.4105
  15747  H        135.3350  106.6270  198.2000 H     916  MOL916      0.2052
  15748  H        136.3820  106.2280  199.3390 H     916  MOL916      0.2052
  15749  O        159.4520   60.3280  221.6000 O.3   917  MOL917     -0.4105
  15750  H        159.1610   59.3930  221.6050 H     917  MOL917      0.2052
  15751  H        160.4440   60.3450  221.6090 H     917  MOL917      0.2052
  15752  O         37.6200  151.4620   66.2110 O.3   918  MOL918     -0.4105
  15753  H         38.5580  151.5630   65.9480 H     918  MOL918      0.2052
  15754  H         37.0840  151.2940   65.3930 H     918  MOL918      0.2052
  15755  O        185.4390   39.1220   64.4440 O.3   919  MOL919     -0.4105
  15756  H        185.0890   38.5100   63.7630 H     919  MOL919      0.2052
  15757  H        184.7180   39.7610   64.6870 H     919  MOL919      0.2052
  15758  O         77.4030  196.8050   60.8390 O.3   920  MOL920     -0.4105
  15759  H         77.6140  195.8810   61.0890 H     920  MOL920      0.2052
  15760  H         76.4180  196.8860   60.7490 H     920  MOL920      0.2052
  15761  O         43.2970   12.7890  225.9850 O.3   921  MOL921     -0.4105
  15762  H         43.5990   12.5190  225.0920 H     921  MOL921      0.2052
  15763  H         42.5680   12.1770  226.2650 H     921  MOL921      0.2052
  15764  O         49.9300   15.4570  273.4790 O.3   922  MOL922     -0.4105
  15765  H         50.7360   15.6640  273.9970 H     922  MOL922      0.2052
  15766  H         49.1410   15.7700  273.9930 H     922  MOL922      0.2052
  15767  O         60.9520  164.6270   97.1480 O.3   923  MOL923     -0.4105
  15768  H         60.5120  163.7880   96.8960 H     923  MOL923      0.2052
  15769  H         60.3020  165.1770   97.6570 H     923  MOL923      0.2052
  15770  O         78.4990  103.3750  199.5250 O.3   924  MOL924     -0.4105
  15771  H         77.5510  103.3510  199.2790 H     924  MOL924      0.2052
  15772  H         78.8960  102.4900  199.3170 H     924  MOL924      0.2052
  15773  O        190.0180  175.4880  227.8590 O.3   925  MOL925     -0.4105
  15774  H        189.3210  176.1380  228.0830 H     925  MOL925      0.2052
  15775  H        190.0390  174.7970  228.5710 H     925  MOL925      0.2052
  15776  O         65.3480    9.8550   31.4060 O.3   926  MOL926     -0.4105
  15777  H         65.2310    8.9200   31.6740 H     926  MOL926      0.2052
  15778  H         64.7240   10.4120   31.9400 H     926  MOL926      0.2052
  15779  O        199.4810   87.9530  241.5330 O.3   927  MOL927     -0.4105
  15780  H        198.5930   87.8260  241.9300 H     927  MOL927      0.2052
  15781  H        199.6150   87.2540  240.8420 H     927  MOL927      0.2052
  15782  O        176.6290  183.2290   90.4830 O.3   928  MOL928     -0.4105
  15783  H        175.6800  183.0380   90.3320 H     928  MOL928      0.2052
  15784  H        176.7090  184.1580   90.8230 H     928  MOL928      0.2052
  15785  O          3.2770  154.9920   19.8890 O.3   929  MOL929     -0.4105
  15786  H          2.5160  154.7700   19.3130 H     929  MOL929      0.2052
  15787  H          3.9260  154.2420   19.8500 H     929  MOL929      0.2052
  15788  O         35.4820   60.0990  278.7400 O.3   930  MOL930     -0.4105
  15789  H         35.3710   61.0520  278.9390 H     930  MOL930      0.2052
  15790  H         34.6050   59.7390  278.4460 H     930  MOL930      0.2052
  15791  O         79.6000  179.6490  158.1740 O.3   931  MOL931     -0.4105
  15792  H         79.2970  180.3550  157.5650 H     931  MOL931      0.2052
  15793  H         79.9990  180.0800  158.9740 H     931  MOL931      0.2052
  15794  O        190.8470  101.9540  170.1670 O.3   932  MOL932     -0.4105
  15795  H        190.7480  101.0830  170.6040 H     932  MOL932      0.2052
  15796  H        190.5950  101.8530  169.2120 H     932  MOL932      0.2052
  15797  O        184.2500   74.5540  207.6500 O.3   933  MOL933     -0.4105
  15798  H        184.2060   75.1170  208.4510 H     933  MOL933      0.2052
  15799  H        184.6400   73.6780  207.9070 H     933  MOL933      0.2052
  15800  O          1.0050  159.9070  114.1060 O.3   934  MOL934     -0.4105
  15801  H          1.9760  159.9900  114.0060 H     934  MOL934      0.2052
  15802  H          0.5730  160.5760  113.5140 H     934  MOL934      0.2052
  15803  O        144.0610  141.2590  287.8020 O.3   935  MOL935     -0.4105
  15804  H        143.7970  141.3350  286.8610 H     935  MOL935      0.2052
  15805  H        144.8930  140.7200  287.8480 H     935  MOL935      0.2052
  15806  O        123.4120  149.8000  299.2060 O.3   936  MOL936     -0.4105
  15807  H        123.7380  150.5300  299.7730 H     936  MOL936      0.2052
  15808  H        123.2590  150.1600  298.2940 H     936  MOL936      0.2052
  15809  O        133.5000   19.7260  279.5470 O.3   937  MOL937     -0.4105
  15810  H        132.8940   19.6910  278.7780 H     937  MOL937      0.2052
  15811  H        134.3150   20.2230  279.2780 H     937  MOL937      0.2052
  15812  O        191.2770   49.1040  109.1110 O.3   938  MOL938     -0.4105
  15813  H        190.8320   48.6860  109.8780 H     938  MOL938      0.2052
  15814  H        192.2520   48.9440  109.1920 H     938  MOL938      0.2052
  15815  O         72.6150   97.8730  238.3010 O.3   939  MOL939     -0.4105
  15816  H         73.1850   97.2590  238.8100 H     939  MOL939      0.2052
  15817  H         72.9220   98.8000  238.4780 H     939  MOL939      0.2052
  15818  O         24.1410  114.1350  260.1210 O.3   940  MOL940     -0.4105
  15819  H         24.1960  113.2930  260.6200 H     940  MOL940      0.2052
  15820  H         23.2550  114.1760  259.6770 H     940  MOL940      0.2052
  15821  O        178.8340  124.9390  202.0030 O.3   941  MOL941     -0.4105
  15822  H        178.4140  125.7050  202.4460 H     941  MOL941      0.2052
  15823  H        178.4520  124.8590  201.0900 H     941  MOL941      0.2052
  15824  O        133.6500  116.9040  189.6570 O.3   942  MOL942     -0.4105
  15825  H        133.6510  115.9260  189.7080 H     942  MOL942      0.2052
  15826  H        132.7610  117.2300  189.9530 H     942  MOL942      0.2052
  15827  O        156.8290  134.9390  193.4590 O.3   943  MOL943     -0.4105
  15828  H        157.6750  134.4490  193.3980 H     943  MOL943      0.2052
  15829  H        156.6390  135.3430  192.5720 H     943  MOL943      0.2052
  15830  O        180.1530  171.0670   13.9210 O.3   944  MOL944     -0.4105
  15831  H        180.1710  172.0360   14.0660 H     944  MOL944      0.2052
  15832  H        181.0890  170.7440   13.8660 H     944  MOL944      0.2052
  15833  O         77.8810   85.5580  259.1160 O.3   945  MOL945     -0.4105
  15834  H         77.4670   86.4460  259.1290 H     945  MOL945      0.2052
  15835  H         78.5920   85.5570  258.4240 H     945  MOL945      0.2052
  15836  O        143.8900  146.2180  236.8740 O.3   946  MOL946     -0.4105
  15837  H        143.8500  147.1550  236.5930 H     946  MOL946      0.2052
  15838  H        144.7830  145.8580  236.6320 H     946  MOL946      0.2052
  15839  O         51.9890   75.8670  170.9840 O.3   947  MOL947     -0.4105
  15840  H         52.7890   76.2570  170.5730 H     947  MOL947      0.2052
  15841  H         51.6360   76.5140  171.6490 H     947  MOL947      0.2052
  15842  O        142.1460  153.8520  241.3540 O.3   948  MOL948     -0.4105
  15843  H        142.5640  153.0280  241.6820 H     948  MOL948      0.2052
  15844  H        141.4460  153.6040  240.6960 H     948  MOL948      0.2052
  15845  O         85.1100  171.1340  183.3100 O.3   949  MOL949     -0.4105
  15846  H         84.4990  170.3700  183.3780 H     949  MOL949      0.2052
  15847  H         85.9910  170.8610  183.6750 H     949  MOL949      0.2052
  15848  O        137.7250  109.8320    5.2790 O.3   950  MOL950     -0.4105
  15849  H        137.2390  110.5880    4.8870 H     950  MOL950      0.2052
  15850  H        138.6860  110.0730    5.3290 H     950  MOL950      0.2052
  15851  O        186.5550   44.3770  111.0690 O.3   951  MOL951     -0.4105
  15852  H        186.9490   45.1560  110.6250 H     951  MOL951      0.2052
  15853  H        185.6720   44.6420  111.4360 H     951  MOL951      0.2052
  15854  O         41.3530  130.1010  229.2000 O.3   952  MOL952     -0.4105
  15855  H         42.0540  130.1920  228.5210 H     952  MOL952      0.2052
  15856  H         41.7470  130.3220  230.0840 H     952  MOL952      0.2052
  15857  O        123.7450  166.1450   96.2100 O.3   953  MOL953     -0.4105
  15858  H        124.5900  166.0020   95.7340 H     953  MOL953      0.2052
  15859  H        123.1160  165.4240   95.9490 H     953  MOL953      0.2052
  15860  O        189.8850  183.8810  211.0370 O.3   954  MOL954     -0.4105
  15861  H        189.4500  183.0250  211.2320 H     954  MOL954      0.2052
  15862  H        190.6490  183.9910  211.6610 H     954  MOL954      0.2052
  15863  O         32.7670   15.9760   41.0890 O.3   955  MOL955     -0.4105
  15864  H         31.9580   16.4520   40.8060 H     955  MOL955      0.2052
  15865  H         33.5480   16.5660   40.9250 H     955  MOL955      0.2052
  15866  O        166.6530  148.5340  267.7030 O.3   956  MOL956     -0.4105
  15867  H        166.7320  147.7010  268.2140 H     956  MOL956      0.2052
  15868  H        166.4270  149.2650  268.3340 H     956  MOL956      0.2052
  15869  O        145.9070  199.2820   74.0900 O.3   957  MOL957     -0.4105
  15870  H        146.5310  199.1160   73.3520 H     957  MOL957      0.2052
  15871  H        146.4290  199.5970   74.8730 H     957  MOL957      0.2052
  15872  O        183.1670  194.8560   60.5390 O.3   958  MOL958     -0.4105
  15873  H        182.8860  195.7950   60.5520 H     958  MOL958      0.2052
  15874  H        183.8910  194.7390   61.2090 H     958  MOL958      0.2052
  15875  O        154.4990   78.9670  272.6570 O.3   959  MOL959     -0.4105
  15876  H        153.5800   79.2390  272.4520 H     959  MOL959      0.2052
  15877  H        154.5030   77.9900  272.8270 H     959  MOL959      0.2052
  15878  O         50.9250  169.5330   30.8360 O.3   960  MOL960     -0.4105
  15879  H         51.1780  168.6300   31.1200 H     960  MOL960      0.2052
  15880  H         51.4970  169.7890   30.0670 H     960  MOL960      0.2052
  15881  O         49.8700  158.3960  272.8140 O.3   961  MOL961     -0.4105
  15882  H         50.3130  157.5390  272.9890 H     961  MOL961      0.2052
  15883  H         48.9060  158.2200  272.6550 H     961  MOL961      0.2052
  15884  O        184.0240  116.2590  107.8660 O.3   962  MOL962     -0.4105
  15885  H        184.9990  116.1690  107.8400 H     962  MOL962      0.2052
  15886  H        183.6450  115.4270  108.2510 H     962  MOL962      0.2052
  15887  O        167.1460  156.4320  178.9910 O.3   963  MOL963     -0.4105
  15888  H        166.6560  155.5920  179.1150 H     963  MOL963      0.2052
  15889  H        168.1130  156.2480  179.1120 H     963  MOL963      0.2052
  15890  O         28.3240   45.5390   77.7730 O.3   964  MOL964     -0.4105
  15891  H         28.1790   46.1240   77.0010 H     964  MOL964      0.2052
  15892  H         29.2760   45.6130   78.0450 H     964  MOL964      0.2052
  15893  O        169.8110   65.4430   99.7010 O.3   965  MOL965     -0.4105
  15894  H        170.7060   65.8430   99.6890 H     965  MOL965      0.2052
  15895  H        169.9130   64.4560   99.7270 H     965  MOL965      0.2052
  15896  O        102.3280  158.7890   25.4960 O.3   966  MOL966     -0.4105
  15897  H        102.4240  157.8160   25.4240 H     966  MOL966      0.2052
  15898  H        101.3670  158.9970   25.6270 H     966  MOL966      0.2052
  15899  O        128.0680   44.1070  175.0880 O.3   967  MOL967     -0.4105
  15900  H        127.3260   43.5640  175.4270 H     967  MOL967      0.2052
  15901  H        128.7400   43.4970  174.6860 H     967  MOL967      0.2052
  15902  O        194.1800  159.2330  164.5330 O.3   968  MOL968     -0.4105
  15903  H        193.3930  159.8110  164.4510 H     968  MOL968      0.2052
  15904  H        194.5230  159.0460  163.6210 H     968  MOL968      0.2052
  15905  O        117.9460   35.2170  126.4050 O.3   969  MOL969     -0.4105
  15906  H        117.2950   35.8310  126.8050 H     969  MOL969      0.2052
  15907  H        117.5180   34.7770  125.6250 H     969  MOL969      0.2052
  15908  O         84.1140   44.5040   30.3470 O.3   970  MOL970     -0.4105
  15909  H         84.2070   43.5380   30.4870 H     970  MOL970      0.2052
  15910  H         84.9590   44.9410   30.6300 H     970  MOL970      0.2052
  15911  O         19.6840   65.1570   50.5030 O.3   971  MOL971     -0.4105
  15912  H         20.0470   64.2580   50.3570 H     971  MOL971      0.2052
  15913  H         20.3740   65.8170   50.2330 H     971  MOL971      0.2052
  15914  O        161.9990  152.4160  234.3770 O.3   972  MOL972     -0.4105
  15915  H        162.9740  152.3230  234.3630 H     972  MOL972      0.2052
  15916  H        161.6000  151.5390  234.1380 H     972  MOL972      0.2052
  15917  O         53.8200   55.4790  209.3890 O.3   973  MOL973     -0.4105
  15918  H         54.4310   56.2180  209.5930 H     973  MOL973      0.2052
  15919  H         54.2630   54.6290  209.6470 H     973  MOL973      0.2052
  15920  O        140.3720  108.4280   28.6010 O.3   974  MOL974     -0.4105
  15921  H        141.2160  107.9310   28.5610 H     974  MOL974      0.2052
  15922  H        140.5830  109.3970   28.6250 H     974  MOL974      0.2052
  15923  O        119.7610  174.5760   81.7810 O.3   975  MOL975     -0.4105
  15924  H        120.3280  175.2820   81.4070 H     975  MOL975      0.2052
  15925  H        119.2880  174.9430   82.5720 H     975  MOL975      0.2052
  15926  O        111.5360  158.8120  280.7950 O.3   976  MOL976     -0.4105
  15927  H        112.0720  159.4870  280.3290 H     976  MOL976      0.2052
  15928  H        110.9200  158.3960  280.1370 H     976  MOL976      0.2052
  15929  O          6.2240  150.5830   95.4070 O.3   977  MOL977     -0.4105
  15930  H          6.0210  151.5280   95.2440 H     977  MOL977      0.2052
  15931  H          7.0860  150.3690   94.9640 H     977  MOL977      0.2052
  15932  O        189.8480   45.0680   44.9370 O.3   978  MOL978     -0.4105
  15933  H        188.9050   44.9590   44.6910 H     978  MOL978      0.2052
  15934  H        190.0160   46.0320   45.1020 H     978  MOL978      0.2052
  15935  O          1.8270  133.5620   15.4960 O.3   979  MOL979     -0.4105
  15936  H          1.1720  132.8330   15.5070 H     979  MOL979      0.2052
  15937  H          2.7330  133.1640   15.4150 H     979  MOL979      0.2052
  15938  O        144.7310   46.0400    0.8870 O.3   980  MOL980     -0.4105
  15939  H        143.9660   46.6220    0.6990 H     980  MOL980      0.2052
  15940  H        144.7220   45.8190    1.8550 H     980  MOL980      0.2052
  15941  O         64.6800   24.6280  153.7480 O.3   981  MOL981     -0.4105
  15942  H         65.3820   24.0740  153.3490 H     981  MOL981      0.2052
  15943  H         63.8040   24.3230  153.3950 H     981  MOL981      0.2052
  15944  O        186.3410  110.4410   73.3370 O.3   982  MOL982     -0.4105
  15945  H        186.8680  110.5460   72.5180 H     982  MOL982      0.2052
  15946  H        186.8160  110.9060   74.0740 H     982  MOL982      0.2052
  15947  O        178.9790  135.9920   40.2630 O.3   983  MOL983     -0.4105
  15948  H        178.6570  135.9780   41.1890 H     983  MOL983      0.2052
  15949  H        179.1580  136.9350   40.0110 H     983  MOL983      0.2052
  15950  O        196.9290  103.3330   72.3010 O.3   984  MOL984     -0.4105
  15951  H        197.8020  103.7700   72.2180 H     984  MOL984      0.2052
  15952  H        197.0800  102.3600   72.4280 H     984  MOL984      0.2052
  15953  O        144.0690   95.8080  180.9090 O.3   985  MOL985     -0.4105
  15954  H        144.3900   94.8840  180.8570 H     985  MOL985      0.2052
  15955  H        144.8470   96.4140  180.7950 H     985  MOL985      0.2052
  15956  O         69.5210   19.8590  256.8970 O.3   986  MOL986     -0.4105
  15957  H         68.8420   20.5440  257.0710 H     986  MOL986      0.2052
  15958  H         69.2290   19.3250  256.1140 H     986  MOL986      0.2052
  15959  O        183.3180   48.0540   27.7160 O.3   987  MOL987     -0.4105
  15960  H        183.6180   48.8590   28.1870 H     987  MOL987      0.2052
  15961  H        182.9550   48.3280   26.8340 H     987  MOL987      0.2052
  15962  O        135.5980   97.0890   78.0830 O.3   988  MOL988     -0.4105
  15963  H        134.6700   96.8200   78.2440 H     988  MOL988      0.2052
  15964  H        135.8280   97.8110   78.7240 H     988  MOL988      0.2052
  15965  O         70.9500   43.1970   60.3400 O.3   989  MOL989     -0.4105
  15966  H         70.0140   42.9720   60.1580 H     989  MOL989      0.2052
  15967  H         71.0390   44.1850   60.3350 H     989  MOL989      0.2052
  15968  O        107.9540   36.3710   33.2820 O.3   990  MOL990     -0.4105
  15969  H        107.6180   35.5210   32.9280 H     990  MOL990      0.2052
  15970  H        108.7190   36.1760   33.8830 H     990  MOL990      0.2052
  15971  O         96.6210  133.0690   36.4300 O.3   991  MOL991     -0.4105
  15972  H         97.2440  132.5180   35.9120 H     991  MOL991      0.2052
  15973  H         97.0510  133.9470   36.6010 H     991  MOL991      0.2052
  15974  O         34.4880  196.9410   86.3760 O.3   992  MOL992     -0.4105
  15975  H         35.2250  197.5050   86.0600 H     992  MOL992      0.2052
  15976  H         34.7710  195.9920   86.3030 H     992  MOL992      0.2052
  15977  O        166.4670   26.3220  100.5400 O.3   993  MOL993     -0.4105
  15978  H        166.2280   25.9940  101.4320 H     993  MOL993      0.2052
  15979  H        165.9870   27.1760  100.3840 H     993  MOL993      0.2052
  15980  O        138.5950   69.3830  236.9600 O.3   994  MOL994     -0.4105
  15981  H        137.6540   69.2460  236.7250 H     994  MOL994      0.2052
  15982  H        138.9750   68.5090  237.2390 H     994  MOL994      0.2052
  15983  O         40.7710  163.2680  253.0310 O.3   995  MOL995     -0.4105
  15984  H         40.0100  163.8630  252.8650 H     995  MOL995      0.2052
  15985  H         41.1680  163.0200  252.1560 H     995  MOL995      0.2052
  15986  O        132.3110   99.8260   53.3620 O.3   996  MOL996     -0.4105
  15987  H        132.2650   99.5970   54.3140 H     996  MOL996      0.2052
  15988  H        132.0420  100.7760   53.2580 H     996  MOL996      0.2052
  15989  O        107.0480  196.3300  182.3120 O.3   997  MOL997     -0.4105
  15990  H        107.5100  197.1770  182.4830 H     997  MOL997      0.2052
  15991  H        107.3090  196.0110  181.4100 H     997  MOL997      0.2052
  15992  O         84.7610  100.0970   30.4670 O.3   998  MOL998     -0.4105
  15993  H         84.8530  100.7850   31.1590 H     998  MOL998      0.2052
  15994  H         83.9430  100.2940   29.9400 H     998  MOL998      0.2052
  15995  O         99.9790  113.6390  197.1670 O.3   999  MOL999     -0.4105
  15996  H        100.8380  113.5380  196.7070 H     999  MOL999      0.2052
  15997  H         99.2590  113.3540  196.5470 H     999  MOL999      0.2052
  15998  O         38.5290   52.1030   29.7000 O.3   1000  MOL1000    -0.4105
  15999  H         38.7440   51.1510   29.7900 H     1000  MOL1000     0.2052
  16000  H         37.7980   52.1950   29.0350 H     1000  MOL1000     0.2052
  16001  O        112.2030  183.4670   73.1740 O.3   1001  MOL1001    -0.4105
  16002  H        112.2680  184.0370   72.3790 H     1001  MOL1001     0.2052
  16003  H        111.5760  183.8960   73.8120 H     1001  MOL1001     0.2052
  16004  O         48.1850   65.0110   70.0800 O.3   1002  MOL1002    -0.4105
  16005  H         48.6390   64.1450   70.1450 H     1002  MOL1002     0.2052
  16006  H         47.2060   64.8490   70.0800 H     1002  MOL1002     0.2052
  16007  O        173.0500  118.7080  172.7820 O.3   1003  MOL1003    -0.4105
  16008  H        172.1690  119.0700  172.5530 H     1003  MOL1003     0.2052
  16009  H        173.3800  119.1830  173.5890 H     1003  MOL1003     0.2052
  16010  O        104.8460   35.5310  169.0780 O.3   1004  MOL1004    -0.4105
  16011  H        105.2800   34.9650  168.4040 H     1004  MOL1004     0.2052
  16012  H        103.9070   35.6820  168.7980 H     1004  MOL1004     0.2052
  16013  O        143.7310   16.8250   31.7360 O.3   1005  MOL1005    -0.4105
  16014  H        143.2970   17.6450   32.0530 H     1005  MOL1005     0.2052
  16015  H        144.6900   17.0230   31.5760 H     1005  MOL1005     0.2052
  16016  O        118.7970   47.4470  249.1730 O.3   1006  MOL1006    -0.4105
  16017  H        117.9920   47.9190  249.4730 H     1006  MOL1006     0.2052
  16018  H        119.5860   48.0020  249.4030 H     1006  MOL1006     0.2052
  16019  O        133.1750  125.4200  266.3730 O.3   1007  MOL1007    -0.4105
  16020  H        133.5230  124.5180  266.5360 H     1007  MOL1007     0.2052
  16021  H        132.2310  125.3400  266.0770 H     1007  MOL1007     0.2052
  16022  O        140.1110   79.2800  248.0820 O.3   1008  MOL1008    -0.4105
  16023  H        140.3900   79.2920  247.1430 H     1008  MOL1008     0.2052
  16024  H        139.1200   79.3110  248.1120 H     1008  MOL1008     0.2052
  16025  O        144.3800  152.2200   34.5770 O.3   1009  MOL1009    -0.4105
  16026  H        144.4450  153.1110   34.9810 H     1009  MOL1009     0.2052
  16027  H        145.2500  152.0090   34.1490 H     1009  MOL1009     0.2052
  16028  O         61.5320   28.0660  231.5440 O.3   1010  MOL1010    -0.4105
  16029  H         62.3100   27.5270  231.2900 H     1010  MOL1010     0.2052
  16030  H         61.8000   29.0210  231.5340 H     1010  MOL1010     0.2052
  16031  O        110.9280   64.7580  177.6020 O.3   1011  MOL1011    -0.4105
  16032  H        111.6120   64.5480  176.9330 H     1011  MOL1011     0.2052
  16033  H        111.3010   65.4330  178.2260 H     1011  MOL1011     0.2052
  16034  O          9.3120  165.7270  231.0180 O.3   1012  MOL1012    -0.4105
  16035  H          8.3710  166.0020  230.9980 H     1012  MOL1012     0.2052
  16036  H          9.4610  165.1900  231.8390 H     1012  MOL1012     0.2052
  16037  O         18.5270  112.0550  252.5000 O.3   1013  MOL1013    -0.4105
  16038  H         17.9790  112.5870  253.1140 H     1013  MOL1013     0.2052
  16039  H         18.3350  112.3540  251.5740 H     1013  MOL1013     0.2052
  16040  O        110.2580   36.7520  248.2950 O.3   1014  MOL1014    -0.4105
  16041  H        110.6360   37.6360  248.1040 H     1014  MOL1014     0.2052
  16042  H        109.2800   36.8550  248.4270 H     1014  MOL1014     0.2052
  16043  O        130.6750   90.0450  220.9730 O.3   1015  MOL1015    -0.4105
  16044  H        131.6220   89.8060  220.8910 H     1015  MOL1015     0.2052
  16045  H        130.1340   89.2290  220.8130 H     1015  MOL1015     0.2052
  16046  O        180.5150   97.0200  207.7740 O.3   1016  MOL1016    -0.4105
  16047  H        181.4580   96.9360  208.0260 H     1016  MOL1016     0.2052
  16048  H        180.2720   97.9820  207.7950 H     1016  MOL1016     0.2052
  16049  O        160.2650   27.2000  106.6010 O.3   1017  MOL1017    -0.4105
  16050  H        159.9880   28.0450  107.0130 H     1017  MOL1017     0.2052
  16051  H        160.2330   27.3100  105.6150 H     1017  MOL1017     0.2052
  16052  O         41.8230   54.7970  166.3640 O.3   1018  MOL1018    -0.4105
  16053  H         41.2300   54.3260  166.9870 H     1018  MOL1018     0.2052
  16054  H         41.2650   55.3720  165.7790 H     1018  MOL1018     0.2052
  16055  O         58.3010  190.4740  254.4700 O.3   1019  MOL1019    -0.4105
  16056  H         57.3550  190.3410  254.6860 H     1019  MOL1019     0.2052
  16057  H         58.3710  190.7000  253.5060 H     1019  MOL1019     0.2052
  16058  O          7.8930  168.7200  200.8670 O.3   1020  MOL1020    -0.4105
  16059  H          8.8540  168.8540  200.7290 H     1020  MOL1020     0.2052
  16060  H          7.7700  167.9100  201.4280 H     1020  MOL1020     0.2052
  16061  O        196.0190   59.4660  180.3330 O.3   1021  MOL1021    -0.4105
  16062  H        195.5720   60.3250  180.4840 H     1021  MOL1021     0.2052
  16063  H        195.3220   58.7630  180.2600 H     1021  MOL1021     0.2052
  16064  O        130.5040   71.1340  195.0030 O.3   1022  MOL1022    -0.4105
  16065  H        130.6580   70.3270  194.4680 H     1022  MOL1022     0.2052
  16066  H        131.3720   71.6010  195.1180 H     1022  MOL1022     0.2052
  16067  O          6.0500    3.4140  188.2500 O.3   1023  MOL1023    -0.4105
  16068  H          5.6670    2.8450  187.5500 H     1023  MOL1023     0.2052
  16069  H          5.4700    4.2130  188.3530 H     1023  MOL1023     0.2052
  16070  O         92.2250   24.6700   88.3530 O.3   1024  MOL1024    -0.4105
  16071  H         92.6260   25.5200   88.0750 H     1024  MOL1024     0.2052
  16072  H         91.2390   24.7490   88.2660 H     1024  MOL1024     0.2052
  16073  O        138.2510   67.6750   25.6670 O.3   1025  MOL1025    -0.4105
  16074  H        138.3700   66.7170   25.8370 H     1025  MOL1025     0.2052
  16075  H        139.1480   68.0940   25.6100 H     1025  MOL1025     0.2052
  16076  O          8.2300  167.5420   29.3330 O.3   1026  MOL1026    -0.4105
  16077  H          9.1050  167.1020   29.3180 H     1026  MOL1026     0.2052
  16078  H          7.7080  167.2220   28.5520 H     1026  MOL1026     0.2052
  16079  O        150.8220    5.4910  224.7330 O.3   1027  MOL1027    -0.4105
  16080  H        151.1620    5.1580  223.8760 H     1027  MOL1027     0.2052
  16081  H        150.2590    6.2880  224.5550 H     1027  MOL1027     0.2052
  16082  O          6.7430    7.2060  294.9790 O.3   1028  MOL1028    -0.4105
  16083  H          7.4750    7.7000  295.4030 H     1028  MOL1028     0.2052
  16084  H          5.9880    7.8340  294.8320 H     1028  MOL1028     0.2052
  16085  O        125.9270  184.2030   15.9290 O.3   1029  MOL1029    -0.4105
  16086  H        126.1700  184.5290   15.0370 H     1029  MOL1029     0.2052
  16087  H        125.7910  184.9880   16.5200 H     1029  MOL1029     0.2052
  16088  O        136.9440  120.9040  251.1750 O.3   1030  MOL1030    -0.4105
  16089  H        137.2570  120.0400  251.5140 H     1030  MOL1030     0.2052
  16090  H        135.9530  120.8830  251.1380 H     1030  MOL1030     0.2052
  16091  O        186.1010  181.9260   79.5640 O.3   1031  MOL1031    -0.4105
  16092  H        186.7360  181.5170   80.1890 H     1031  MOL1031     0.2052
  16093  H        186.6160  182.4400   78.8900 H     1031  MOL1031     0.2052
  16094  O         77.2670  160.8870  116.7810 O.3   1032  MOL1032    -0.4105
  16095  H         78.0930  160.3600  116.7760 H     1032  MOL1032     0.2052
  16096  H         76.4980  160.2600  116.7980 H     1032  MOL1032     0.2052
  16097  O         71.0260   19.9400  247.2840 O.3   1033  MOL1033    -0.4105
  16098  H         70.0890   19.6950  247.4320 H     1033  MOL1033     0.2052
  16099  H         71.4990   19.1500  246.9150 H     1033  MOL1033     0.2052
  16100  O        161.1290   21.5510  137.5100 O.3   1034  MOL1034    -0.4105
  16101  H        160.4050   20.9500  137.2350 H     1034  MOL1034     0.2052
  16102  H        161.9550   21.2820  137.0300 H     1034  MOL1034     0.2052
  16103  O        184.8660  149.1020  182.3430 O.3   1035  MOL1035    -0.4105
  16104  H        184.7150  149.6320  183.1540 H     1035  MOL1035     0.2052
  16105  H        183.9850  148.7920  182.0070 H     1035  MOL1035     0.2052
  16106  O        198.7720  147.8260  170.5240 O.3   1036  MOL1036    -0.4105
  16107  H        199.7080  147.8190  170.2360 H     1036  MOL1036     0.2052
  16108  H        198.5890  148.6960  170.9650 H     1036  MOL1036     0.2052
  16109  O        180.4030   33.4880  123.4440 O.3   1037  MOL1037    -0.4105
  16110  H        180.3760   33.7920  122.5120 H     1037  MOL1037     0.2052
  16111  H        181.2250   32.9480  123.5710 H     1037  MOL1037     0.2052
  16112  O        182.8140  190.1050  123.9520 O.3   1038  MOL1038    -0.4105
  16113  H        182.0150  189.5920  124.1930 H     1038  MOL1038     0.2052
  16114  H        183.4780  189.4790  123.5610 H     1038  MOL1038     0.2052
  16115  O        111.5010  126.6560   23.8540 O.3   1039  MOL1039    -0.4105
  16116  H        111.9330  127.4330   23.4410 H     1039  MOL1039     0.2052
  16117  H        111.5360  126.7680   24.8390 H     1039  MOL1039     0.2052
  16118  O        156.4700  117.5330   48.1390 O.3   1040  MOL1040    -0.4105
  16119  H        156.6600  117.7160   49.0830 H     1040  MOL1040     0.2052
  16120  H        157.1230  118.0370   47.5880 H     1040  MOL1040     0.2052
  16121  O        131.6400   83.9510   75.6150 O.3   1041  MOL1041    -0.4105
  16122  H        130.8500   84.4780   75.3730 H     1041  MOL1041     0.2052
  16123  H        131.3540   83.2310   76.2350 H     1041  MOL1041     0.2052
  16124  O         39.7320   76.9810  294.9520 O.3   1042  MOL1042    -0.4105
  16125  H         38.8900   77.1880  295.4090 H     1042  MOL1042     0.2052
  16126  H         40.4800   77.3050  295.5180 H     1042  MOL1042     0.2052
  16127  O        156.0780   48.2870  295.4930 O.3   1043  MOL1043    -0.4105
  16128  H        156.9610   47.9110  295.6890 H     1043  MOL1043     0.2052
  16129  H        156.1630   49.2740  295.4510 H     1043  MOL1043     0.2052
  16130  O        179.0480  147.8690  218.6830 O.3   1044  MOL1044    -0.4105
  16131  H        178.2120  147.4030  218.8930 H     1044  MOL1044     0.2052
  16132  H        179.6870  147.7100  219.4250 H     1044  MOL1044     0.2052
  16133  O        189.7350  151.6610   87.2620 O.3   1045  MOL1045    -0.4105
  16134  H        190.5960  152.0460   86.9950 H     1045  MOL1045     0.2052
  16135  H        189.1270  151.6860   86.4790 H     1045  MOL1045     0.2052
  16136  O        102.3420   73.5430  284.6950 O.3   1046  MOL1046    -0.4105
  16137  H        102.1550   72.9800  285.4760 H     1046  MOL1046     0.2052
  16138  H        103.0260   73.0860  284.1400 H     1046  MOL1046     0.2052
  16139  O        156.9980  165.4200  213.0890 O.3   1047  MOL1047    -0.4105
  16140  H        156.0250  165.5080  213.1590 H     1047  MOL1047     0.2052
  16141  H        157.2200  164.4530  213.0460 H     1047  MOL1047     0.2052
  16142  O        129.0730   98.4740  220.8500 O.3   1048  MOL1048    -0.4105
  16143  H        129.3320   99.4190  220.9010 H     1048  MOL1048     0.2052
  16144  H        129.9000   97.9260  220.8530 H     1048  MOL1048     0.2052
  16145  O         59.0980  117.9930   34.7990 O.3   1049  MOL1049    -0.4105
  16146  H         58.5020  118.7000   35.1230 H     1049  MOL1049     0.2052
  16147  H         59.7530  117.7870   35.5160 H     1049  MOL1049     0.2052
  16148  O         59.7510   79.5270  249.3930 O.3   1050  MOL1050    -0.4105
  16149  H         60.5950   79.0760  249.1820 H     1050  MOL1050     0.2052
  16150  H         59.9470   80.2790  250.0100 H     1050  MOL1050     0.2052
  16151  O        124.6380   26.3260  202.8000 O.3   1051  MOL1051    -0.4105
  16152  H        124.3250   25.8710  201.9910 H     1051  MOL1051     0.2052
  16153  H        124.7420   27.2910  202.5920 H     1051  MOL1051     0.2052
  16154  O         34.6820  118.3280  194.3240 O.3   1052  MOL1052    -0.4105
  16155  H         35.1790  117.4840  194.2950 H     1052  MOL1052     0.2052
  16156  H         33.7120  118.1170  194.3360 H     1052  MOL1052     0.2052
  16157  O         16.3560  162.4620  241.4290 O.3   1053  MOL1053    -0.4105
  16158  H         17.2600  162.4120  241.8050 H     1053  MOL1053     0.2052
  16159  H         15.9820  163.3570  241.6390 H     1053  MOL1053     0.2052
  16160  O         60.9260  169.0630  242.5550 O.3   1054  MOL1054    -0.4105
  16161  H         60.2260  169.6760  242.2460 H     1054  MOL1054     0.2052
  16162  H         61.0700  168.3770  241.8520 H     1054  MOL1054     0.2052
  16163  O        193.5050  116.3790   43.5070 O.3   1055  MOL1055    -0.4105
  16164  H        192.8520  117.0190   43.8620 H     1055  MOL1055     0.2052
  16165  H        194.0960  116.0940   44.2510 H     1055  MOL1055     0.2052
  16166  O        108.0460  140.4270  291.4510 O.3   1056  MOL1056    -0.4105
  16167  H        109.0230  140.3490  291.4570 H     1056  MOL1056     0.2052
  16168  H        107.8110  141.3910  291.4420 H     1056  MOL1056     0.2052
  16169  O        133.5170  108.7550  207.5260 O.3   1057  MOL1057    -0.4105
  16170  H        132.7180  109.2450  207.8130 H     1057  MOL1057     0.2052
  16171  H        133.3960  107.7990  207.7620 H     1057  MOL1057     0.2052
  16172  O        160.6680  164.2130   77.8220 O.3   1058  MOL1058    -0.4105
  16173  H        161.0070  163.7340   78.6070 H     1058  MOL1058     0.2052
  16174  H        160.2820  165.0750   78.1280 H     1058  MOL1058     0.2052
  16175  O        178.9010  168.9750  268.7910 O.3   1059  MOL1059    -0.4105
  16176  H        178.1260  169.5660  268.6890 H     1059  MOL1059     0.2052
  16177  H        179.0260  168.4780  267.9410 H     1059  MOL1059     0.2052
  16178  O         31.1260   13.8820  187.0350 O.3   1060  MOL1060    -0.4105
  16179  H         31.9830   14.3260  187.2040 H     1060  MOL1060     0.2052
  16180  H         30.4180   14.5770  186.9970 H     1060  MOL1060     0.2052
  16181  O         33.6410   22.2610  105.0320 O.3   1061  MOL1061    -0.4105
  16182  H         34.4520   22.3260  104.4860 H     1061  MOL1061     0.2052
  16183  H         33.5130   21.3110  105.2860 H     1061  MOL1061     0.2052
  16184  O          2.8440   17.9870  258.5460 O.3   1062  MOL1062    -0.4105
  16185  H          2.1760   18.7040  258.5500 H     1062  MOL1062     0.2052
  16186  H          3.7410   18.3990  258.4480 H     1062  MOL1062     0.2052
  16187  O        184.6550  164.3410  257.2240 O.3   1063  MOL1063    -0.4105
  16188  H        184.0640  164.3870  258.0050 H     1063  MOL1063     0.2052
  16189  H        184.2110  164.8090  256.4700 H     1063  MOL1063     0.2052
  16190  O         94.6960   47.5020   41.8300 O.3   1064  MOL1064    -0.4105
  16191  H         94.2800   47.2510   40.9780 H     1064  MOL1064     0.2052
  16192  H         95.6370   47.7610   41.6510 H     1064  MOL1064     0.2052
  16193  O         32.0460  116.9400   80.0100 O.3   1065  MOL1065    -0.4105
  16194  H         31.4730  116.2700   79.5820 H     1065  MOL1065     0.2052
  16195  H         32.5620  116.4920   80.7300 H     1065  MOL1065     0.2052
  16196  O         62.6460    5.2780   36.4750 O.3   1066  MOL1066    -0.4105
  16197  H         62.9350    5.4310   37.3990 H     1066  MOL1066     0.2052
  16198  H         63.2600    4.6160   36.0630 H     1066  MOL1066     0.2052
  16199  O         89.4210  197.2750  223.2900 O.3   1067  MOL1067    -0.4105
  16200  H         89.6980  196.5070  223.8320 H     1067  MOL1067     0.2052
  16201  H         88.4390  197.2220  223.1550 H     1067  MOL1067     0.2052
  16202  O         60.7620   10.5060   89.4530 O.3   1068  MOL1068    -0.4105
  16203  H         60.2560    9.7730   89.0450 H     1068  MOL1068     0.2052
  16204  H         61.2800   10.1380   90.2160 H     1068  MOL1068     0.2052
  16205  O        176.2410   71.6340   19.5570 O.3   1069  MOL1069    -0.4105
  16206  H        176.9430   72.1370   19.0920 H     1069  MOL1069     0.2052
  16207  H        175.3750   71.8300   19.1150 H     1069  MOL1069     0.2052
  16208  O         14.6210   57.9000  212.0320 O.3   1070  MOL1070    -0.4105
  16209  H         15.3140   58.5930  212.0230 H     1070  MOL1070     0.2052
  16210  H         15.0660   57.0150  212.0890 H     1070  MOL1070     0.2052
  16211  O         64.7110    8.6790  183.5990 O.3   1071  MOL1071    -0.4105
  16212  H         64.8950    9.6410  183.6380 H     1071  MOL1071     0.2052
  16213  H         63.7270    8.5500  183.6060 H     1071  MOL1071     0.2052
  16214  O        108.6210   65.7850  237.3610 O.3   1072  MOL1072    -0.4105
  16215  H        108.0960   66.4980  237.7820 H     1072  MOL1072     0.2052
  16216  H        109.3640   66.2050  236.8550 H     1072  MOL1072     0.2052
  16217  O        182.2360  104.5560   44.9790 O.3   1073  MOL1073    -0.4105
  16218  H        181.6270  105.3230   45.0130 H     1073  MOL1073     0.2052
  16219  H        183.1630  104.8990   44.8910 H     1073  MOL1073     0.2052
  16220  O         74.0630  169.5210  166.6560 O.3   1074  MOL1074    -0.4105
  16221  H         73.4710  169.4830  167.4370 H     1074  MOL1074     0.2052
  16222  H         74.6860  168.7500  166.7020 H     1074  MOL1074     0.2052
  16223  O        128.5190   50.5730  168.2400 O.3   1075  MOL1075    -0.4105
  16224  H        128.1780   49.7180  167.9050 H     1075  MOL1075     0.2052
  16225  H        127.7900   51.2440  168.1820 H     1075  MOL1075     0.2052
  16226  O         54.9100   74.5490   16.0390 O.3   1076  MOL1076    -0.4105
  16227  H         55.2730   73.9810   15.3280 H     1076  MOL1076     0.2052
  16228  H         55.4360   74.3880   16.8650 H     1076  MOL1076     0.2052
  16229  O         77.5270   15.1790   69.1920 O.3   1077  MOL1077    -0.4105
  16230  H         77.8630   14.2980   68.9250 H     1077  MOL1077     0.2052
  16231  H         78.0730   15.8700   68.7350 H     1077  MOL1077     0.2052
  16232  O         51.7350  165.6960  202.4440 O.3   1078  MOL1078    -0.4105
  16233  H         52.7030  165.7430  202.5880 H     1078  MOL1078     0.2052
  16234  H         51.3270  166.5260  202.8030 H     1078  MOL1078     0.2052
  16235  O         35.5430   97.2110  104.5210 O.3   1079  MOL1079    -0.4105
  16236  H         35.7620   98.0920  104.1520 H     1079  MOL1079     0.2052
  16237  H         36.3690   96.6610  104.5230 H     1079  MOL1079     0.2052
  16238  O         16.5560  163.2490   21.3300 O.3   1080  MOL1080    -0.4105
  16239  H         16.9390  162.3550   21.4540 H     1080  MOL1080     0.2052
  16240  H         15.6790  163.1510   20.8770 H     1080  MOL1080     0.2052
  16241  O        182.6190  112.0740   40.8760 O.3   1081  MOL1081    -0.4105
  16242  H        182.9320  111.4680   40.1720 H     1081  MOL1081     0.2052
  16243  H        182.2230  111.5260   41.6030 H     1081  MOL1081     0.2052
  16244  O        175.9410   30.0830   76.4380 O.3   1082  MOL1082    -0.4105
  16245  H        176.2430   29.1580   76.3190 H     1082  MOL1082     0.2052
  16246  H        176.2920   30.4140   77.3050 H     1082  MOL1082     0.2052
  16247  O         28.9230  165.2200  236.3550 O.3   1083  MOL1083    -0.4105
  16248  H         29.5190  165.9490  236.6260 H     1083  MOL1083     0.2052
  16249  H         29.2510  164.8560  235.4920 H     1083  MOL1083     0.2052
  16250  O        115.4390   44.5240  124.8420 O.3   1084  MOL1084    -0.4105
  16251  H        116.1950   44.8600  124.3170 H     1084  MOL1084     0.2052
  16252  H        114.8530   45.2930  125.0690 H     1084  MOL1084     0.2052
  16253  O          8.1350  189.8690  271.8540 O.3   1085  MOL1085    -0.4105
  16254  H          8.5700  190.7460  271.8100 H     1085  MOL1085     0.2052
  16255  H          7.1560  190.0030  271.7690 H     1085  MOL1085     0.2052
  16256  O        127.1370  134.3630  288.4810 O.3   1086  MOL1086    -0.4105
  16257  H        127.2160  135.3400  288.4860 H     1086  MOL1086     0.2052
  16258  H        126.1750  134.1300  288.4160 H     1086  MOL1086     0.2052
  16259  O        188.4170   37.1670  237.3970 O.3   1087  MOL1087    -0.4105
  16260  H        188.2110   38.0450  237.7800 H     1087  MOL1087     0.2052
  16261  H        187.6410   36.5690  237.5560 H     1087  MOL1087     0.2052
  16262  O        128.7670   73.4640  192.5450 O.3   1088  MOL1088    -0.4105
  16263  H        129.4070   73.7150  193.2430 H     1088  MOL1088     0.2052
  16264  H        129.2770   73.1780  191.7440 H     1088  MOL1088     0.2052
  16265  O         15.5650   23.8970   99.5180 O.3   1089  MOL1089    -0.4105
  16266  H         15.2110   23.2580   98.8650 H     1089  MOL1089     0.2052
  16267  H         15.9390   23.3860  100.2820 H     1089  MOL1089     0.2052
  16268  O        194.2890   98.2550  165.7670 O.3   1090  MOL1090    -0.4105
  16269  H        194.8250   97.5950  166.2530 H     1090  MOL1090     0.2052
  16270  H        193.7120   97.7720  165.1200 H     1090  MOL1090     0.2052
  16271  O         52.1130  110.6750   73.3770 O.3   1091  MOL1091    -0.4105
  16272  H         51.5830  110.4070   74.1560 H     1091  MOL1091     0.2052
  16273  H         51.5500  111.2590   72.8050 H     1091  MOL1091     0.2052
  16274  O         60.1010    1.8600  202.7960 O.3   1092  MOL1092    -0.4105
  16275  H         59.7150    2.7600  202.7580 H     1092  MOL1092     0.2052
  16276  H         59.3600    1.2020  202.7400 H     1092  MOL1092     0.2052
  16277  O         55.0150   21.0930    8.4330 O.3   1093  MOL1093    -0.4105
  16278  H         55.9500   21.3590    8.5540 H     1093  MOL1093     0.2052
  16279  H         54.4650   21.9150    8.3590 H     1093  MOL1093     0.2052
  16280  O         16.6170  100.7640   76.7160 O.3   1094  MOL1094    -0.4105
  16281  H         17.1740   99.9980   76.9670 H     1094  MOL1094     0.2052
  16282  H         17.1940  101.4330   76.2640 H     1094  MOL1094     0.2052
  16283  O         50.0720   18.4750  128.3190 O.3   1095  MOL1095    -0.4105
  16284  H         49.6650   19.3070  128.0000 H     1095  MOL1095     0.2052
  16285  H         51.0520   18.6140  128.3870 H     1095  MOL1095     0.2052
  16286  O        104.7830  154.0130   18.3060 O.3   1096  MOL1096    -0.4105
  16287  H        104.3390  153.1700   18.5380 H     1096  MOL1096     0.2052
  16288  H        105.6180  153.7980   17.8150 H     1096  MOL1096     0.2052
  16289  O        129.7310  156.3460  271.4120 O.3   1097  MOL1097    -0.4105
  16290  H        130.4190  156.6810  270.8010 H     1097  MOL1097     0.2052
  16291  H        129.6530  155.3650  271.2850 H     1097  MOL1097     0.2052
  16292  O         99.9940   86.9200    4.8300 O.3   1098  MOL1098    -0.4105
  16293  H        100.5010   86.4360    4.1450 H     1098  MOL1098     0.2052
  16294  H         99.0700   86.5590    4.8450 H     1098  MOL1098     0.2052
  16295  O        182.9560  187.6150  142.7250 O.3   1099  MOL1099    -0.4105
  16296  H        182.5330  186.9530  143.3110 H     1099  MOL1099     0.2052
  16297  H        182.7820  187.3550  141.7840 H     1099  MOL1099     0.2052
  16298  O         89.6120  142.1180   42.3920 O.3   1100  MOL1100    -0.4105
  16299  H         90.5600  141.8920   42.2920 H     1100  MOL1100     0.2052
  16300  H         89.1030  141.2750   42.5140 H     1100  MOL1100     0.2052
  16301  O         44.8600   85.3150  222.0320 O.3   1101  MOL1101    -0.4105
  16302  H         45.6830   84.9200  222.3890 H     1101  MOL1101     0.2052
  16303  H         45.0680   86.2320  221.7150 H     1101  MOL1101     0.2052
  16304  O         32.4260  110.9340   90.5490 O.3   1102  MOL1102    -0.4105
  16305  H         32.3240  111.5610   89.8030 H     1102  MOL1102     0.2052
  16306  H         32.8290  111.4220   91.3120 H     1102  MOL1102     0.2052
  16307  O          2.9710  125.4770  236.3340 O.3   1103  MOL1103    -0.4105
  16308  H          3.3650  125.5130  237.2310 H     1103  MOL1103     0.2052
  16309  H          3.1010  124.5610  235.9740 H     1103  MOL1103     0.2052
  16310  O         63.5660  120.7290  275.0800 O.3   1104  MOL1104    -0.4105
  16311  H         64.3550  120.1590  274.9650 H     1104  MOL1104     0.2052
  16312  H         63.8560  121.6760  275.0230 H     1104  MOL1104     0.2052
  16313  O         28.2200   95.2460   70.2930 O.3   1105  MOL1105    -0.4105
  16314  H         28.5370   95.9730   70.8680 H     1105  MOL1105     0.2052
  16315  H         27.3330   94.9510   70.6250 H     1105  MOL1105     0.2052
  16316  O          4.6930   22.1700  182.4740 O.3   1106  MOL1106    -0.4105
  16317  H          4.2180   22.9570  182.1360 H     1106  MOL1106     0.2052
  16318  H          4.0250   21.4610  182.6640 H     1106  MOL1106     0.2052
  16319  O         95.7730  169.4520  154.3430 O.3   1107  MOL1107    -0.4105
  16320  H         95.6910  170.3880  154.6210 H     1107  MOL1107     0.2052
  16321  H         96.4980  169.3910  153.6670 H     1107  MOL1107     0.2052
  16322  O        152.5630   98.4110   38.9030 O.3   1108  MOL1108    -0.4105
  16323  H        151.6940   98.8150   39.1090 H     1108  MOL1108     0.2052
  16324  H        152.4340   97.7530   38.1720 H     1108  MOL1108     0.2052
  16325  O        120.0440   13.2740   14.6260 O.3   1109  MOL1109    -0.4105
  16326  H        120.6760   12.5430   14.4610 H     1109  MOL1109     0.2052
  16327  H        120.3090   13.7290   15.4660 H     1109  MOL1109     0.2052
  16328  O        157.3770  178.7060  111.2770 O.3   1110  MOL1110    -0.4105
  16329  H        157.9870  178.5680  112.0310 H     1110  MOL1110     0.2052
  16330  H        157.0520  177.8180  110.9750 H     1110  MOL1110     0.2052
  16331  O        108.9900    1.8320   63.3500 O.3   1111  MOL1111    -0.4105
  16332  H        108.8030    0.8870   63.5330 H     1111  MOL1111     0.2052
  16333  H        108.3990    2.3830   63.9260 H     1111  MOL1111     0.2052
  16334  O        197.3380   33.3430   42.9540 O.3   1112  MOL1112    -0.4105
  16335  H        197.3780   32.4470   43.3480 H     1112  MOL1112     0.2052
  16336  H        196.3850   33.5670   42.7890 H     1112  MOL1112     0.2052
  16337  O         40.8670  138.1930  211.7650 O.3   1113  MOL1113    -0.4105
  16338  H         40.7900  137.9970  212.7220 H     1113  MOL1113     0.2052
  16339  H         40.3470  137.5110  211.2660 H     1113  MOL1113     0.2052
  16340  O         96.8110  182.0490  268.7000 O.3   1114  MOL1114    -0.4105
  16341  H         96.5410  182.9870  268.6100 H     1114  MOL1114     0.2052
  16342  H         95.9900  181.4920  268.7380 H     1114  MOL1114     0.2052
  16343  O        119.9150   44.5650  160.5700 O.3   1115  MOL1115    -0.4105
  16344  H        119.5970   44.0810  161.3610 H     1115  MOL1115     0.2052
  16345  H        119.5020   44.1530  159.7670 H     1115  MOL1115     0.2052
  16346  O         59.2890   82.3800  195.9150 O.3   1116  MOL1116    -0.4105
  16347  H         58.8470   81.5980  196.3070 H     1116  MOL1116     0.2052
  16348  H         60.0390   82.6430  196.5100 H     1116  MOL1116     0.2052
  16349  O        105.4190  195.7980  136.3810 O.3   1117  MOL1117    -0.4105
  16350  H        104.9050  195.9050  137.2080 H     1117  MOL1117     0.2052
  16351  H        105.7690  196.6890  136.1160 H     1117  MOL1117     0.2052
  16352  O          9.1270   21.2640  137.2790 O.3   1118  MOL1118    -0.4105
  16353  H          8.8920   22.2100  137.1810 H     1118  MOL1118     0.2052
  16354  H          9.6090   21.1520  138.1390 H     1118  MOL1118     0.2052
  16355  O        139.7130  113.0840   34.1980 O.3   1119  MOL1119    -0.4105
  16356  H        138.7400  113.1970   34.2320 H     1119  MOL1119     0.2052
  16357  H        140.1270  113.9840   34.1390 H     1119  MOL1119     0.2052
  16358  O         89.0390  179.6650   94.7670 O.3   1120  MOL1120    -0.4105
  16359  H         89.8950  179.1890   94.7910 H     1120  MOL1120     0.2052
  16360  H         89.1620  180.5480   95.2030 H     1120  MOL1120     0.2052
  16361  O        192.8250  196.3910  290.6970 O.3   1121  MOL1121    -0.4105
  16362  H        193.1560  197.0570  291.3350 H     1121  MOL1121     0.2052
  16363  H        191.8620  196.5670  290.5360 H     1121  MOL1121     0.2052
  16364  O        109.6650  190.0250  201.2400 O.3   1122  MOL1122    -0.4105
  16365  H        109.9360  190.4040  200.3780 H     1122  MOL1122     0.2052
  16366  H        109.3880  189.0830  201.0910 H     1122  MOL1122     0.2052
  16367  O        116.1700   67.3870  253.0850 O.3   1123  MOL1123    -0.4105
  16368  H        116.4550   67.1420  252.1800 H     1123  MOL1123     0.2052
  16369  H        115.5150   68.1290  253.0150 H     1123  MOL1123     0.2052
  16370  O        163.5060  115.0040  157.5260 O.3   1124  MOL1124    -0.4105
  16371  H        163.8580  114.1030  157.3680 H     1124  MOL1124     0.2052
  16372  H        164.2740  115.6240  157.6270 H     1124  MOL1124     0.2052
  16373  O          0.0890  183.1640  136.5270 O.3   1125  MOL1125    -0.4105
  16374  H          0.0340  183.7960  137.2740 H     1125  MOL1125     0.2052
  16375  H          0.9980  183.2270  136.1330 H     1125  MOL1125     0.2052
  16376  O        178.8920   88.5320  250.0330 O.3   1126  MOL1126    -0.4105
  16377  H        178.9430   88.7810  249.0870 H     1126  MOL1126     0.2052
  16378  H        179.0770   89.3400  250.5780 H     1126  MOL1126     0.2052
  16379  O         34.5140   22.2820   82.1650 O.3   1127  MOL1127    -0.4105
  16380  H         33.7580   22.8140   81.8370 H     1127  MOL1127     0.2052
  16381  H         34.9080   22.7510   82.9460 H     1127  MOL1127     0.2052
  16382  O        183.1790  178.9930  196.3090 O.3   1128  MOL1128    -0.4105
  16383  H        183.5530  178.8960  195.4090 H     1128  MOL1128     0.2052
  16384  H        183.6350  179.7540  196.7540 H     1128  MOL1128     0.2052
  16385  O         52.7770  167.0590  148.6280 O.3   1129  MOL1129    -0.4105
  16386  H         52.5810  167.2760  149.5640 H     1129  MOL1129     0.2052
  16387  H         53.4270  167.7250  148.2840 H     1129  MOL1129     0.2052
  16388  O         89.9680  178.3200  226.6520 O.3   1130  MOL1130    -0.4105
  16389  H         90.5070  179.1250  226.5050 H     1130  MOL1130     0.2052
  16390  H         90.5820  177.5440  226.7280 H     1130  MOL1130     0.2052
  16391  O         28.1920  156.8300  153.9630 O.3   1131  MOL1131    -0.4105
  16392  H         27.4190  156.7390  154.5590 H     1131  MOL1131     0.2052
  16393  H         28.9430  156.3080  154.3470 H     1131  MOL1131     0.2052
  16394  O        117.2790   91.9940  255.9110 O.3   1132  MOL1132    -0.4105
  16395  H        117.0380   91.4000  256.6520 H     1132  MOL1132     0.2052
  16396  H        116.4430   92.3590  255.5200 H     1132  MOL1132     0.2052
  16397  O        143.4240    6.0520   63.5870 O.3   1133  MOL1133    -0.4105
  16398  H        144.3370    5.7310   63.7420 H     1133  MOL1133     0.2052
  16399  H        143.3120    6.2120   62.6140 H     1133  MOL1133     0.2052
  16400  O         71.1160  172.6230   95.1050 O.3   1134  MOL1134    -0.4105
  16401  H         71.7880  171.9990   94.7610 H     1134  MOL1134     0.2052
  16402  H         70.3870  172.6940   94.4350 H     1134  MOL1134     0.2052
  16403  O         96.5270    9.2400  241.0240 O.3   1135  MOL1135    -0.4105
  16404  H         96.8570    8.6830  241.7600 H     1135  MOL1135     0.2052
  16405  H         96.0090    9.9920  241.4120 H     1135  MOL1135     0.2052
  16406  O        131.0410   72.5910  199.8120 O.3   1136  MOL1136    -0.4105
  16407  H        131.9450   72.7190  199.4570 H     1136  MOL1136     0.2052
  16408  H        130.6660   71.7630  199.4140 H     1136  MOL1136     0.2052
  16409  O         83.0380  121.3710  169.7760 O.3   1137  MOL1137    -0.4105
  16410  H         82.4690  121.7290  170.4880 H     1137  MOL1137     0.2052
  16411  H         83.4730  120.5450  170.1120 H     1137  MOL1137     0.2052
  16412  O         17.0630   89.9620  273.2990 O.3   1138  MOL1138    -0.4105
  16413  H         17.3730   89.8870  272.3720 H     1138  MOL1138     0.2052
  16414  H         17.8260   90.2610  273.8580 H     1138  MOL1138     0.2052
  16415  O        106.8820  138.7780   41.7310 O.3   1139  MOL1139    -0.4105
  16416  H        107.8600  138.8180   41.7840 H     1139  MOL1139     0.2052
  16417  H        106.5210  139.6650   41.9890 H     1139  MOL1139     0.2052
  16418  O         70.0200  137.3040  194.8870 O.3   1140  MOL1140    -0.4105
  16419  H         70.7900  137.7970  194.5340 H     1140  MOL1140     0.2052
  16420  H         70.2990  136.8490  195.7230 H     1140  MOL1140     0.2052
  16421  O        171.9380   98.3020  204.3010 O.3   1141  MOL1141    -0.4105
  16422  H        171.1500   97.7200  204.3460 H     1141  MOL1141     0.2052
  16423  H        172.2230   98.3640  203.3520 H     1141  MOL1141     0.2052
  16424  O        113.9180  122.7620   76.3990 O.3   1142  MOL1142    -0.4105
  16425  H        114.5340  123.4570   76.7120 H     1142  MOL1142     0.2052
  16426  H        114.4020  122.1860   75.7520 H     1142  MOL1142     0.2052
  16427  O         97.9080   12.9080  296.8520 O.3   1143  MOL1143    -0.4105
  16428  H         97.0290   12.5840  296.5650 H     1143  MOL1143     0.2052
  16429  H         98.3590   12.1790  297.3530 H     1143  MOL1143     0.2052
  16430  O         63.6980   20.3560   83.4690 O.3   1144  MOL1144    -0.4105
  16431  H         62.8920   20.8520   83.7220 H     1144  MOL1144     0.2052
  16432  H         64.1700   20.0860   84.2990 H     1144  MOL1144     0.2052
  16433  O         86.8540  163.6870   23.5390 O.3   1145  MOL1145    -0.4105
  16434  H         87.0970  162.7380   23.5470 H     1145  MOL1145     0.2052
  16435  H         85.8650  163.7550   23.5040 H     1145  MOL1145     0.2052
  16436  O         89.2120   53.7960   27.0690 O.3   1146  MOL1146    -0.4105
  16437  H         89.9370   53.2620   26.6810 H     1146  MOL1146     0.2052
  16438  H         88.4040   53.2240   27.1290 H     1146  MOL1146     0.2052
  16439  O        171.1650  144.3790   68.0480 O.3   1147  MOL1147    -0.4105
  16440  H        171.9860  144.6190   68.5270 H     1147  MOL1147     0.2052
  16441  H        170.8620  143.4930   68.3780 H     1147  MOL1147     0.2052
  16442  O        186.6320   57.2480  212.7280 O.3   1148  MOL1148    -0.4105
  16443  H        185.8030   57.4420  212.2430 H     1148  MOL1148     0.2052
  16444  H        186.4120   56.6620  213.4980 H     1148  MOL1148     0.2052
  16445  O         23.4760   25.9170   29.0160 O.3   1149  MOL1149    -0.4105
  16446  H         24.2560   25.4060   28.7150 H     1149  MOL1149     0.2052
  16447  H         23.7150   26.3820   29.8590 H     1149  MOL1149     0.2052
  16448  O         45.5540  114.3750  196.0090 O.3   1150  MOL1150    -0.4105
  16449  H         45.3160  114.9960  195.2900 H     1150  MOL1150     0.2052
  16450  H         45.1320  114.6950  196.8480 H     1150  MOL1150     0.2052
  16451  O          7.5880   83.3200  195.6170 O.3   1151  MOL1151    -0.4105
  16452  H          8.3190   82.6910  195.4370 H     1151  MOL1151     0.2052
  16453  H          6.7290   82.8450  195.4730 H     1151  MOL1151     0.2052
  16454  O        194.6920  114.3470  231.9560 O.3   1152  MOL1152    -0.4105
  16455  H        195.2060  114.2040  232.7780 H     1152  MOL1152     0.2052
  16456  H        194.9540  115.2240  231.5740 H     1152  MOL1152     0.2052
  16457  O        181.5440  158.5010  265.6400 O.3   1153  MOL1153    -0.4105
  16458  H        181.4890  159.4600  265.4470 H     1153  MOL1153     0.2052
  16459  H        180.8050  158.0440  265.1600 H     1153  MOL1153     0.2052
  16460  O        186.6530  132.1370  294.7590 O.3   1154  MOL1154    -0.4105
  16461  H        186.7230  131.5090  295.5080 H     1154  MOL1154     0.2052
  16462  H        185.7840  131.9840  294.3050 H     1154  MOL1154     0.2052
  16463  O        186.5170  196.7720  210.7830 O.3   1155  MOL1155    -0.4105
  16464  H        186.5170  195.9780  210.2090 H     1155  MOL1155     0.2052
  16465  H        187.3920  197.2290  210.6810 H     1155  MOL1155     0.2052
  16466  O        172.6320    8.7840  142.3640 O.3   1156  MOL1156    -0.4105
  16467  H        172.7860    9.6380  142.8210 H     1156  MOL1156     0.2052
  16468  H        171.6530    8.6580  142.2640 H     1156  MOL1156     0.2052
  16469  O        179.1640  175.9420  171.2610 O.3   1157  MOL1157    -0.4105
  16470  H        178.7940  175.2630  170.6590 H     1157  MOL1157     0.2052
  16471  H        180.1510  175.8350  171.2800 H     1157  MOL1157     0.2052
  16472  O         46.7650   13.0310  218.0470 O.3   1158  MOL1158    -0.4105
  16473  H         45.8000   12.8670  218.0860 H     1158  MOL1158     0.2052
  16474  H         46.9110   14.0100  217.9700 H     1158  MOL1158     0.2052
  16475  O         16.4920  128.4260  233.7550 O.3   1159  MOL1159    -0.4105
  16476  H         17.4340  128.5290  234.0050 H     1159  MOL1159     0.2052
  16477  H         15.9390  128.9140  234.4190 H     1159  MOL1159     0.2052
  16478  O        152.0850  136.2270  228.3030 O.3   1160  MOL1160    -0.4105
  16479  H        152.0440  137.1640  228.5880 H     1160  MOL1160     0.2052
  16480  H        152.3830  135.6800  229.0760 H     1160  MOL1160     0.2052
  16481  O        113.6600  183.6310  281.7630 O.3   1161  MOL1161    -0.4105
  16482  H        113.7870  184.5960  281.6550 H     1161  MOL1161     0.2052
  16483  H        113.3180  183.4630  282.6800 H     1161  MOL1161     0.2052
  16484  O          6.7790  122.0300   49.8310 O.3   1162  MOL1162    -0.4105
  16485  H          6.8580  122.8300   49.2700 H     1162  MOL1162     0.2052
  16486  H          5.9110  122.0700   50.3080 H     1162  MOL1162     0.2052
  16487  O        125.7250    9.1040  105.4780 O.3   1163  MOL1163    -0.4105
  16488  H        126.5930    8.6560  105.4000 H     1163  MOL1163     0.2052
  16489  H        125.0750    8.6230  104.9020 H     1163  MOL1163     0.2052
  16490  O        151.6270   93.0720   20.1210 O.3   1164  MOL1164    -0.4105
  16491  H        151.5600   94.0460   20.1950 H     1164  MOL1164     0.2052
  16492  H        152.5720   92.8120   20.2790 H     1164  MOL1164     0.2052
  16493  O         62.3980  111.5990   40.6830 O.3   1165  MOL1165    -0.4105
  16494  H         61.5560  111.9590   41.0310 H     1165  MOL1165     0.2052
  16495  H         62.8750  112.3290   40.2100 H     1165  MOL1165     0.2052
  16496  O         41.9610  185.6370  238.2210 O.3   1166  MOL1166    -0.4105
  16497  H         41.2560  186.2370  237.9000 H     1166  MOL1166     0.2052
  16498  H         42.6540  186.1850  238.6730 H     1166  MOL1166     0.2052
  16499  O         32.3200    6.1110  289.5810 O.3   1167  MOL1167    -0.4105
  16500  H         32.3170    6.5860  290.4380 H     1167  MOL1167     0.2052
  16501  H         31.7030    6.5820  288.9620 H     1167  MOL1167     0.2052
  16502  O        103.0220    1.0370   79.5610 O.3   1168  MOL1168    -0.4105
  16503  H        103.6440    0.4340   80.0190 H     1168  MOL1168     0.2052
  16504  H        102.7740    1.7640   80.1890 H     1168  MOL1168     0.2052
  16505  O        111.6930   34.8020  155.3070 O.3   1169  MOL1169    -0.4105
  16506  H        111.9070   33.9500  155.7400 H     1169  MOL1169     0.2052
  16507  H        111.8740   34.7120  154.3360 H     1169  MOL1169     0.2052
  16508  O        153.5960  157.4140  153.6760 O.3   1170  MOL1170    -0.4105
  16509  H        153.8780  157.4760  154.6120 H     1170  MOL1170     0.2052
  16510  H        153.1730  158.2750  153.4220 H     1170  MOL1170     0.2052
  16511  O        167.1750  100.5880  115.0070 O.3   1171  MOL1171    -0.4105
  16512  H        167.8850  100.7770  114.3580 H     1171  MOL1171     0.2052
  16513  H        167.5730  100.6080  115.9160 H     1171  MOL1171     0.2052
  16514  O         81.9270   74.1030   34.2550 O.3   1172  MOL1172    -0.4105
  16515  H         82.8710   73.9890   34.4900 H     1172  MOL1172     0.2052
  16516  H         81.4390   74.4050   35.0650 H     1172  MOL1172     0.2052
  16517  O        185.0060  186.8440  240.2640 O.3   1173  MOL1173    -0.4105
  16518  H        185.0310  185.8700  240.3760 H     1173  MOL1173     0.2052
  16519  H        184.0580  187.1350  240.2900 H     1173  MOL1173     0.2052
  16520  O          8.1180   83.2100  235.7230 O.3   1174  MOL1174    -0.4105
  16521  H          7.6120   84.0480  235.7760 H     1174  MOL1174     0.2052
  16522  H          8.8550   83.2510  236.3860 H     1174  MOL1174     0.2052
  16523  O         39.5790  153.7370   93.0040 O.3   1175  MOL1175    -0.4105
  16524  H         40.0550  154.5400   93.3020 H     1175  MOL1175     0.2052
  16525  H         40.0050  152.9480   93.4280 H     1175  MOL1175     0.2052
  16526  O        124.3030   27.1320  134.4900 O.3   1176  MOL1176    -0.4105
  16527  H        124.8140   27.9640  134.5670 H     1176  MOL1176     0.2052
  16528  H        123.4230   27.2660  134.9290 H     1176  MOL1176     0.2052
  16529  O         25.2570   52.6080  137.8530 O.3   1177  MOL1177    -0.4105
  16530  H         25.1740   53.0410  136.9780 H     1177  MOL1177     0.2052
  16531  H         25.9890   53.0550  138.3530 H     1177  MOL1177     0.2052
  16532  O        181.1890   75.9680  217.4150 O.3   1178  MOL1178    -0.4105
  16533  H        181.4970   76.8900  217.2860 H     1178  MOL1178     0.2052
  16534  H        181.0340   75.8250  218.3840 H     1178  MOL1178     0.2052
  16535  O        147.1060  117.8300   68.9550 O.3   1179  MOL1179    -0.4105
  16536  H        147.6170  117.9110   68.1230 H     1179  MOL1179     0.2052
  16537  H        147.1300  116.8800   69.2420 H     1179  MOL1179     0.2052
  16538  O        121.6520   15.9320  167.6360 O.3   1180  MOL1180    -0.4105
  16539  H        121.1700   16.4680  168.3010 H     1180  MOL1180     0.2052
  16540  H        121.1660   15.9970  166.7740 H     1180  MOL1180     0.2052
  16541  O         19.7960   16.9770   84.2900 O.3   1181  MOL1181    -0.4105
  16542  H         19.2670   17.3740   83.5670 H     1181  MOL1181     0.2052
  16543  H         19.4110   16.0880   84.5050 H     1181  MOL1181     0.2052
  16544  O         14.9940  186.2940  107.5220 O.3   1182  MOL1182    -0.4105
  16545  H         15.6200  186.7540  106.9250 H     1182  MOL1182     0.2052
  16546  H         14.2650  186.9260  107.7540 H     1182  MOL1182     0.2052
  16547  O         46.8730   46.7460   49.5570 O.3   1183  MOL1183    -0.4105
  16548  H         45.9160   46.8910   49.4000 H     1183  MOL1183     0.2052
  16549  H         46.9970   45.8130   49.8720 H     1183  MOL1183     0.2052
  16550  O         28.1100  176.7520    8.0390 O.3   1184  MOL1184    -0.4105
  16551  H         28.1740  177.5760    8.5650 H     1184  MOL1184     0.2052
  16552  H         28.7650  176.1010    8.4020 H     1184  MOL1184     0.2052
  16553  O        173.3610   67.5990  291.7160 O.3   1185  MOL1185    -0.4105
  16554  H        173.6280   68.4410  291.2910 H     1185  MOL1185     0.2052
  16555  H        172.3700   67.5660  291.7460 H     1185  MOL1185     0.2052
  16556  O         76.8660  156.1930   90.5800 O.3   1186  MOL1186    -0.4105
  16557  H         76.2400  155.5780   90.1420 H     1186  MOL1186     0.2052
  16558  H         76.3560  156.7460   91.2280 H     1186  MOL1186     0.2052
  16559  O          1.7310  136.9970  292.0910 O.3   1187  MOL1187    -0.4105
  16560  H          2.3550  137.2730  292.7930 H     1187  MOL1187     0.2052
  16561  H          1.0050  136.4670  292.5120 H     1187  MOL1187     0.2052
  16562  O        128.0050   97.8190   28.4510 O.3   1188  MOL1188    -0.4105
  16563  H        127.6750   98.1870   29.2980 H     1188  MOL1188     0.2052
  16564  H        127.3110   97.9660   27.7570 H     1188  MOL1188     0.2052
  16565  O        126.2800   56.0090  262.7910 O.3   1189  MOL1189    -0.4105
  16566  H        127.2250   56.2060  262.9600 H     1189  MOL1189     0.2052
  16567  H        125.9980   56.5120  261.9830 H     1189  MOL1189     0.2052
  16568  O         99.5020  190.2880  127.5260 O.3   1190  MOL1190    -0.4105
  16569  H         99.2190  189.9520  126.6500 H     1190  MOL1190     0.2052
  16570  H         98.7080  190.6720  127.9820 H     1190  MOL1190     0.2052
  16571  O        126.4430   19.2720  141.4460 O.3   1191  MOL1191    -0.4105
  16572  H        126.2630   18.3080  141.4620 H     1191  MOL1191     0.2052
  16573  H        125.5750   19.7490  141.4010 H     1191  MOL1191     0.2052
  16574  O        137.2990  103.6060   13.3690 O.3   1192  MOL1192    -0.4105
  16575  H        138.1050  104.1620   13.3850 H     1192  MOL1192     0.2052
  16576  H        136.5160  104.1890   13.5480 H     1192  MOL1192     0.2052
  16577  O        186.4040   27.3700   41.6290 O.3   1193  MOL1193    -0.4105
  16578  H        186.8220   28.2450   41.4860 H     1193  MOL1193     0.2052
  16579  H        187.1230   26.7030   41.7820 H     1193  MOL1193     0.2052
  16580  O        107.1030  100.9340  209.5030 O.3   1194  MOL1194    -0.4105
  16581  H        107.5950  101.7760  209.4100 H     1194  MOL1194     0.2052
  16582  H        107.1040  100.6790  210.4620 H     1194  MOL1194     0.2052
  16583  O          7.9240   19.1360  247.0250 O.3   1195  MOL1195    -0.4105
  16584  H          7.1190   19.2920  247.5620 H     1195  MOL1195     0.2052
  16585  H          8.6180   18.7390  247.6130 H     1195  MOL1195     0.2052
  16586  O         44.1760   82.3720  199.6790 O.3   1196  MOL1196    -0.4105
  16587  H         45.0790   82.0290  199.5150 H     1196  MOL1196     0.2052
  16588  H         43.7770   82.6240  198.8060 H     1196  MOL1196     0.2052
  16589  O        153.8560   78.1180  178.7950 O.3   1197  MOL1197    -0.4105
  16590  H        154.5280   78.8000  179.0050 H     1197  MOL1197     0.2052
  16591  H        154.3150   77.3520  178.3640 H     1197  MOL1197     0.2052
  16592  O         35.1530  171.6560  284.9250 O.3   1198  MOL1198    -0.4105
  16593  H         35.3260  172.5860  285.1820 H     1198  MOL1198     0.2052
  16594  H         36.0250  171.1890  284.8480 H     1198  MOL1198     0.2052
  16595  O          7.7330   69.4190  208.9000 O.3   1199  MOL1199    -0.4105
  16596  H          8.2240   70.2140  209.1930 H     1199  MOL1199     0.2052
  16597  H          8.0930   68.6340  209.3880 H     1199  MOL1199     0.2052
  16598  O          6.7210   75.3860  232.6970 O.3   1200  MOL1200    -0.4105
  16599  H          5.9630   74.8290  232.9750 H     1200  MOL1200     0.2052
  16600  H          7.5530   74.8570  232.8130 H     1200  MOL1200     0.2052
  16601  O        120.9860  167.9920   64.8300 O.3   1201  MOL1201    -0.4105
  16602  H        121.1890  167.0700   65.0920 H     1201  MOL1201     0.2052
  16603  H        120.3120  167.9670   64.1020 H     1201  MOL1201     0.2052
  16604  O        183.5140   51.2150   77.4270 O.3   1202  MOL1202    -0.4105
  16605  H        183.8240   52.0010   76.9300 H     1202  MOL1202     0.2052
  16606  H        182.6700   51.4540   77.8900 H     1202  MOL1202     0.2052
  16607  O         46.1970  162.7730  286.8410 O.3   1203  MOL1203    -0.4105
  16608  H         45.3740  162.2510  286.9410 H     1203  MOL1203     0.2052
  16609  H         46.9320  162.1510  286.6010 H     1203  MOL1203     0.2052
  16610  O        193.1770  171.4120  175.4680 O.3   1204  MOL1204    -0.4105
  16611  H        193.0880  170.4400  175.3880 H     1204  MOL1204     0.2052
  16612  H        194.1380  171.6280  175.5900 H     1204  MOL1204     0.2052
  16613  O        187.9370   52.0590  178.9220 O.3   1205  MOL1205    -0.4105
  16614  H        188.4670   51.2350  178.9450 H     1205  MOL1205     0.2052
  16615  H        188.4640   52.7540  178.4490 H     1205  MOL1205     0.2052
  16616  O        114.7040   54.3870  177.0360 O.3   1206  MOL1206    -0.4105
  16617  H        114.5610   55.2760  177.4220 H     1206  MOL1206     0.2052
  16618  H        115.6560   54.3150  176.7670 H     1206  MOL1206     0.2052
  16619  O        172.3900  115.4530  117.5600 O.3   1207  MOL1207    -0.4105
  16620  H        172.2750  116.2650  117.0250 H     1207  MOL1207     0.2052
  16621  H        173.3220  115.1320  117.4420 H     1207  MOL1207     0.2052
  16622  O        100.1300   31.1930  176.0680 O.3   1208  MOL1208    -0.4105
  16623  H         99.3360   30.7980  176.4850 H     1208  MOL1208     0.2052
  16624  H        100.7870   31.3990  176.7820 H     1208  MOL1208     0.2052
  16625  O         39.7440  161.4300  278.3600 O.3   1209  MOL1209    -0.4105
  16626  H         38.9570  161.6850  278.8860 H     1209  MOL1209     0.2052
  16627  H         40.4390  161.0960  278.9840 H     1209  MOL1209     0.2052
  16628  O         95.8940  182.8980   32.8310 O.3   1210  MOL1210    -0.4105
  16629  H         96.6190  182.5540   33.3930 H     1210  MOL1210     0.2052
  16630  H         96.1540  183.7980   32.5050 H     1210  MOL1210     0.2052
  16631  O        167.5880  121.8350   86.6210 O.3   1211  MOL1211    -0.4105
  16632  H        168.3770  121.3160   86.3600 H     1211  MOL1211     0.2052
  16633  H        167.0360  121.2770   87.2280 H     1211  MOL1211     0.2052
  16634  O         48.7110   97.2020   71.7650 O.3   1212  MOL1212    -0.4105
  16635  H         48.2860   96.3340   71.6010 H     1212  MOL1212     0.2052
  16636  H         49.1730   97.4840   70.9340 H     1212  MOL1212     0.2052
  16637  O         29.7310   28.3100  143.9520 O.3   1213  MOL1213    -0.4105
  16638  H         28.9430   28.4760  143.3930 H     1213  MOL1213     0.2052
  16639  H         29.4200   28.0070  144.8440 H     1213  MOL1213     0.2052
  16640  O        174.3180   68.1290    5.7680 O.3   1214  MOL1214    -0.4105
  16641  H        174.3640   67.1500    5.8030 H     1214  MOL1214     0.2052
  16642  H        175.2260   68.4890    5.9420 H     1214  MOL1214     0.2052
  16643  O        193.4410   98.9480   56.5950 O.3   1215  MOL1215    -0.4105
  16644  H        192.6550   98.4340   56.8730 H     1215  MOL1215     0.2052
  16645  H        194.2400   98.3670   56.6870 H     1215  MOL1215     0.2052
  16646  O        118.0490   23.3980   47.4370 O.3   1216  MOL1216    -0.4105
  16647  H        117.3180   23.2560   48.0750 H     1216  MOL1216     0.2052
  16648  H        117.6780   23.3310   46.5190 H     1216  MOL1216     0.2052
  16649  O        181.4700  127.0160   60.0540 O.3   1217  MOL1217    -0.4105
  16650  H        180.8530  126.7090   59.3580 H     1217  MOL1217     0.2052
  16651  H        181.2390  127.9530   60.2830 H     1217  MOL1217     0.2052
  16652  O         26.3370  136.7510  265.0940 O.3   1218  MOL1218    -0.4105
  16653  H         25.6810  136.1510  264.6810 H     1218  MOL1218     0.2052
  16654  H         25.9430  137.6610  265.1370 H     1218  MOL1218     0.2052
  16655  O        121.4950  112.6450  214.2940 O.3   1219  MOL1219    -0.4105
  16656  H        122.4320  112.4340  214.4910 H     1219  MOL1219     0.2052
  16657  H        120.9760  111.8000  214.3130 H     1219  MOL1219     0.2052
  16658  O         35.2940    4.8200  220.2840 O.3   1220  MOL1220    -0.4105
  16659  H         35.8930    4.7100  219.5170 H     1220  MOL1220     0.2052
  16660  H         34.3580    4.7810  219.9560 H     1220  MOL1220     0.2052
  16661  O        181.2460   22.7940  143.3160 O.3   1221  MOL1221    -0.4105
  16662  H        180.6830   23.3510  142.7390 H     1221  MOL1221     0.2052
  16663  H        181.5530   23.3480  144.0800 H     1221  MOL1221     0.2052
  16664  O        165.9560    3.7500   43.1700 O.3   1222  MOL1222    -0.4105
  16665  H        165.8470    2.7790   43.0830 H     1222  MOL1222     0.2052
  16666  H        165.0540    4.1620   43.1960 H     1222  MOL1222     0.2052
  16667  O         20.5970  180.4230  143.6580 O.3   1223  MOL1223    -0.4105
  16668  H         21.1050  179.5840  143.6700 H     1223  MOL1223     0.2052
  16669  H         21.1820  181.1340  143.2860 H     1223  MOL1223     0.2052
  16670  O         18.2220  185.9000  216.0760 O.3   1224  MOL1224    -0.4105
  16671  H         18.8410  186.1970  215.3770 H     1224  MOL1224     0.2052
  16672  H         17.3550  186.3620  215.9410 H     1224  MOL1224     0.2052
  16673  O        139.3030  130.1690  198.2770 O.3   1225  MOL1225    -0.4105
  16674  H        139.3210  129.4190  198.9090 H     1225  MOL1225     0.2052
  16675  H        138.3690  130.4970  198.2110 H     1225  MOL1225     0.2052
  16676  O         16.1160  197.9270  165.8390 O.3   1226  MOL1226    -0.4105
  16677  H         15.6240  197.2970  165.2720 H     1226  MOL1226     0.2052
  16678  H         15.5930  198.7680  165.8960 H     1226  MOL1226     0.2052
  16679  O        154.7630  108.5980  213.8670 O.3   1227  MOL1227    -0.4105
  16680  H        154.8730  108.9410  214.7790 H     1227  MOL1227     0.2052
  16681  H        154.6240  107.6170  213.9190 H     1227  MOL1227     0.2052
  16682  O        110.2470  118.0650  295.4470 O.3   1228  MOL1228    -0.4105
  16683  H        111.1150  118.4280  295.1720 H     1228  MOL1228     0.2052
  16684  H        109.8650  118.6640  296.1400 H     1228  MOL1228     0.2052
  16685  O        149.4300   30.9780   18.6280 O.3   1229  MOL1229    -0.4105
  16686  H        148.6800   30.9470   19.2590 H     1229  MOL1229     0.2052
  16687  H        149.2450   31.6890   17.9610 H     1229  MOL1229     0.2052
  16688  O        166.7910  101.0740   93.7630 O.3   1230  MOL1230    -0.4105
  16689  H        166.1630  100.6030   94.3490 H     1230  MOL1230     0.2052
  16690  H        166.5950  102.0450   93.8130 H     1230  MOL1230     0.2052
  16691  O         46.7050   64.5490  289.1420 O.3   1231  MOL1231    -0.4105
  16692  H         47.3150   64.5870  289.9080 H     1231  MOL1231     0.2052
  16693  H         46.8230   63.6720  288.6950 H     1231  MOL1231     0.2052
  16694  O        109.6010   26.4540   53.1630 O.3   1232  MOL1232    -0.4105
  16695  H        110.3830   26.7870   53.6510 H     1232  MOL1232     0.2052
  16696  H        108.8570   27.0990   53.2920 H     1232  MOL1232     0.2052
  16697  O         56.8010  158.4880  245.8880 O.3   1233  MOL1233    -0.4105
  16698  H         55.9760  159.0170  245.8930 H     1233  MOL1233     0.2052
  16699  H         56.5540  157.5270  245.8950 H     1233  MOL1233     0.2052
  16700  O         86.0470   57.9050  232.4480 O.3   1234  MOL1234    -0.4105
  16701  H         85.6820   57.2770  233.1060 H     1234  MOL1234     0.2052
  16702  H         86.9790   57.6330  232.2430 H     1234  MOL1234     0.2052
  16703  O        149.7340  191.1190  136.6940 O.3   1235  MOL1235    -0.4105
  16704  H        149.7210  191.0820  137.6740 H     1235  MOL1235     0.2052
  16705  H        149.0060  191.7240  136.3970 H     1235  MOL1235     0.2052
  16706  O        145.3560  150.1950   59.8360 O.3   1236  MOL1236    -0.4105
  16707  H        146.2510  149.8670   60.0600 H     1236  MOL1236     0.2052
  16708  H        144.7380  149.4180   59.8110 H     1236  MOL1236     0.2052
  16709  O        152.1110   18.6310  248.5510 O.3   1237  MOL1237    -0.4105
  16710  H        152.4290   19.5470  248.4070 H     1237  MOL1237     0.2052
  16711  H        151.7480   18.2900  247.6930 H     1237  MOL1237     0.2052
  16712  O         16.3800    2.2910  187.0710 O.3   1238  MOL1238    -0.4105
  16713  H         16.4990    1.9060  186.1780 H     1238  MOL1238     0.2052
  16714  H         17.2400    2.2100  187.5600 H     1238  MOL1238     0.2052
  16715  O        100.3200   61.8440  178.5890 O.3   1239  MOL1239    -0.4105
  16716  H         99.5330   61.5110  179.0690 H     1239  MOL1239     0.2052
  16717  H        101.1260   61.6290  179.1270 H     1239  MOL1239     0.2052
  16718  O         65.1390  157.9390   75.4680 O.3   1240  MOL1240    -0.4105
  16719  H         65.9260  157.7420   74.9180 H     1240  MOL1240     0.2052
  16720  H         65.2050  158.8800   75.7770 H     1240  MOL1240     0.2052
  16721  O        103.8460   54.7120    6.3780 O.3   1241  MOL1241    -0.4105
  16722  H        104.7980   54.9160    6.2730 H     1241  MOL1241     0.2052
  16723  H        103.7640   53.8060    6.7760 H     1241  MOL1241     0.2052
  16724  O        128.0680  124.7660  289.3100 O.3   1242  MOL1242    -0.4105
  16725  H        128.5960  124.8850  290.1270 H     1242  MOL1242     0.2052
  16726  H        128.6900  124.7570  288.5370 H     1242  MOL1242     0.2052
  16727  O         21.9160  116.1090  284.4720 O.3   1243  MOL1243    -0.4105
  16728  H         20.9680  115.9240  284.3060 H     1243  MOL1243     0.2052
  16729  H         22.0320  117.0910  284.5530 H     1243  MOL1243     0.2052
  16730  O         25.8430  182.5750  176.7970 O.3   1244  MOL1244    -0.4105
  16731  H         24.9430  182.5300  176.4130 H     1244  MOL1244     0.2052
  16732  H         25.7620  182.5380  177.7850 H     1244  MOL1244     0.2052
  16733  O         70.1010  137.4560   62.8530 O.3   1245  MOL1245    -0.4105
  16734  H         69.2110  137.8010   63.0760 H     1245  MOL1245     0.2052
  16735  H         70.0620  136.4640   62.8660 H     1245  MOL1245     0.2052
  16736  O        125.1940   86.0620  172.5720 O.3   1246  MOL1246    -0.4105
  16737  H        126.0240   86.3550  173.0040 H     1246  MOL1246     0.2052
  16738  H        124.5460   86.8130  172.6030 H     1246  MOL1246     0.2052
  16739  O         15.7720  100.9010   72.5150 O.3   1247  MOL1247    -0.4105
  16740  H         15.1450  100.4120   73.0880 H     1247  MOL1247     0.2052
  16741  H         15.6210  101.8720   72.6490 H     1247  MOL1247     0.2052
  16742  O        189.1060   90.7300  238.8550 O.3   1248  MOL1248    -0.4105
  16743  H        189.5110   89.8410  238.7710 H     1248  MOL1248     0.2052
  16744  H        188.1200   90.6260  238.8070 H     1248  MOL1248     0.2052
  16745  O        173.1960   16.5780  151.1070 O.3   1249  MOL1249    -0.4105
  16746  H        173.3540   16.4600  150.1470 H     1249  MOL1249     0.2052
  16747  H        174.0250   16.9410  151.5150 H     1249  MOL1249     0.2052
  16748  O        141.9930  190.3690  128.0230 O.3   1250  MOL1250    -0.4105
  16749  H        141.1210  190.3290  127.5780 H     1250  MOL1250     0.2052
  16750  H        142.2520  189.4470  128.2830 H     1250  MOL1250     0.2052
  16751  O        174.4220   16.8550  291.5270 O.3   1251  MOL1251    -0.4105
  16752  H        174.6980   15.9150  291.5670 H     1251  MOL1251     0.2052
  16753  H        175.1740   17.4140  291.8540 H     1251  MOL1251     0.2052
  16754  O        102.8940   41.2410  280.9210 O.3   1252  MOL1252    -0.4105
  16755  H        103.7890   41.5380  280.6530 H     1252  MOL1252     0.2052
  16756  H        102.8790   41.1540  281.9100 H     1252  MOL1252     0.2052
  16757  O        154.6650   39.8680   32.4620 O.3   1253  MOL1253    -0.4105
  16758  H        154.4320   39.2960   33.2220 H     1253  MOL1253     0.2052
  16759  H        155.3070   40.5560   32.7770 H     1253  MOL1253     0.2052
  16760  O        154.7290  152.3860   58.1040 O.3   1254  MOL1254    -0.4105
  16761  H        154.9590  153.3270   58.2500 H     1254  MOL1254     0.2052
  16762  H        155.5460  151.8410   58.2480 H     1254  MOL1254     0.2052
  16763  O        157.1340   46.5310  171.8340 O.3   1255  MOL1255    -0.4105
  16764  H        156.2370   46.5450  171.4390 H     1255  MOL1255     0.2052
  16765  H        157.5580   45.6620  171.6120 H     1255  MOL1255     0.2052
  16766  O         31.5120   37.0640  119.8750 O.3   1256  MOL1256    -0.4105
  16767  H         32.3380   36.6930  120.2490 H     1256  MOL1256     0.2052
  16768  H         30.9010   36.3100  119.6640 H     1256  MOL1256     0.2052
  16769  O        108.9100  160.2510  123.2990 O.3   1257  MOL1257    -0.4105
  16770  H        107.9540  160.1440  123.1150 H     1257  MOL1257     0.2052
  16771  H        109.1740  161.1730  123.0450 H     1257  MOL1257     0.2052
  16772  O          4.2330   36.6700   16.0840 O.3   1258  MOL1258    -0.4105
  16773  H          5.0820   36.3190   16.4250 H     1258  MOL1258     0.2052
  16774  H          3.9540   36.1110   15.3130 H     1258  MOL1258     0.2052
  16775  O          5.9740   76.0780   44.8580 O.3   1259  MOL1259    -0.4105
  16776  H          6.7300   75.6720   44.3840 H     1259  MOL1259     0.2052
  16777  H          5.4210   75.3480   45.2410 H     1259  MOL1259     0.2052
  16778  O         75.1650  183.9690  276.3050 O.3   1260  MOL1260    -0.4105
  16779  H         75.6160  183.1140  276.4690 H     1260  MOL1260     0.2052
  16780  H         75.4290  184.6020  277.0230 H     1260  MOL1260     0.2052
  16781  O          4.6330   99.1950  243.0610 O.3   1261  MOL1261    -0.4105
  16782  H          5.4160   98.6850  242.7660 H     1261  MOL1261     0.2052
  16783  H          3.8200   98.6650  242.8510 H     1261  MOL1261     0.2052
  16784  O         95.5680   11.2810   37.5820 O.3   1262  MOL1262    -0.4105
  16785  H         96.1670   11.3040   38.3570 H     1262  MOL1262     0.2052
  16786  H         95.4480   10.3340   37.3110 H     1262  MOL1262     0.2052
  16787  O         63.4250  109.2350  262.6400 O.3   1263  MOL1263    -0.4105
  16788  H         63.2640  110.1080  263.0550 H     1263  MOL1263     0.2052
  16789  H         63.2470  109.3160  261.6670 H     1263  MOL1263     0.2052
  16790  O         20.1130   18.1480  195.9520 O.3   1264  MOL1264    -0.4105
  16791  H         20.8950   17.5580  195.9410 H     1264  MOL1264     0.2052
  16792  H         20.4320   19.0870  195.9650 H     1264  MOL1264     0.2052
  16793  O         13.0470   88.0700  111.0420 O.3   1265  MOL1265    -0.4105
  16794  H         13.5880   88.8870  111.0360 H     1265  MOL1265     0.2052
  16795  H         13.0280   87.7030  110.1200 H     1265  MOL1265     0.2052
  16796  O        199.9420    9.0940  225.8270 O.3   1266  MOL1266    -0.4105
  16797  H        199.3420    8.3190  225.8390 H     1266  MOL1266     0.2052
  16798  H        199.5860    9.7520  225.1740 H     1266  MOL1266     0.2052
  16799  O         55.0160  177.8610  263.6890 O.3   1267  MOL1267    -0.4105
  16800  H         55.4860  178.1630  264.4940 H     1267  MOL1267     0.2052
  16801  H         55.6390  177.9370  262.9200 H     1267  MOL1267     0.2052
  16802  O        170.2430  194.5450  256.8950 O.3   1268  MOL1268    -0.4105
  16803  H        170.8200  195.3180  256.7220 H     1268  MOL1268     0.2052
  16804  H        169.7150  194.3620  256.0760 H     1268  MOL1268     0.2052
  16805  O         87.9460   25.1400   84.3520 O.3   1269  MOL1269    -0.4105
  16806  H         87.0890   25.0320   84.8150 H     1269  MOL1269     0.2052
  16807  H         87.8210   25.7930   83.6150 H     1269  MOL1269     0.2052
  16808  O        103.1360  179.1650  137.5480 O.3   1270  MOL1270    -0.4105
  16809  H        103.5460  180.0080  137.8350 H     1270  MOL1270     0.2052
  16810  H        103.7020  178.4180  137.8740 H     1270  MOL1270     0.2052
  16811  O         30.1790  159.5670  231.2960 O.3   1271  MOL1271    -0.4105
  16812  H         30.7740  159.8020  232.0380 H     1271  MOL1271     0.2052
  16813  H         30.5250  159.9980  230.4720 H     1271  MOL1271     0.2052
  16814  O        108.3760    6.9080  277.8620 O.3   1272  MOL1272    -0.4105
  16815  H        107.4070    6.8420  277.7360 H     1272  MOL1272     0.2052
  16816  H        108.7900    6.0670  277.5350 H     1272  MOL1272     0.2052
  16817  O        132.9800  162.0590  115.8920 O.3   1273  MOL1273    -0.4105
  16818  H        132.0120  161.9030  115.8870 H     1273  MOL1273     0.2052
  16819  H        133.4350  161.1770  115.8910 H     1273  MOL1273     0.2052
  16820  O         61.0550  134.5590   41.3520 O.3   1274  MOL1274    -0.4105
  16821  H         60.5110  135.3690   41.2620 H     1274  MOL1274     0.2052
  16822  H         62.0110  134.8220   41.3220 H     1274  MOL1274     0.2052
  16823  O         14.5650  157.4510   30.4240 O.3   1275  MOL1275    -0.4105
  16824  H         14.8670  156.5640   30.7120 H     1275  MOL1275     0.2052
  16825  H         14.3920  157.9980   31.2330 H     1275  MOL1275     0.2052
  16826  O        102.5670   61.5870   44.9720 O.3   1276  MOL1276    -0.4105
  16827  H        103.1620   62.3060   44.6710 H     1276  MOL1276     0.2052
  16828  H        101.8260   61.9940   45.4910 H     1276  MOL1276     0.2052
  16829  O         10.1730  129.6460   15.8630 O.3   1277  MOL1277    -0.4105
  16830  H         10.5260  130.3450   16.4510 H     1277  MOL1277     0.2052
  16831  H         10.2080  129.9790   14.9290 H     1277  MOL1277     0.2052
  16832  O        165.8140  147.7400  253.3770 O.3   1278  MOL1278    -0.4105
  16833  H        166.7140  148.0400  253.6220 H     1278  MOL1278     0.2052
  16834  H        165.8800  146.8140  253.0260 H     1278  MOL1278     0.2052
  16835  O         47.3270  147.9430  153.7370 O.3   1279  MOL1279    -0.4105
  16836  H         46.5610  147.6840  154.2900 H     1279  MOL1279     0.2052
  16837  H         47.7920  147.1170  153.4440 H     1279  MOL1279     0.2052
  16838  O        133.6460   27.5880  220.1640 O.3   1280  MOL1280    -0.4105
  16839  H        133.9870   28.0080  219.3470 H     1280  MOL1280     0.2052
  16840  H        133.9880   28.1000  220.9420 H     1280  MOL1280     0.2052
  16841  O        173.7960   36.5790  190.0350 O.3   1281  MOL1281    -0.4105
  16842  H        174.1210   35.6950  189.7620 H     1281  MOL1281     0.2052
  16843  H        172.9110   36.4630  190.4670 H     1281  MOL1281     0.2052
  16844  O        172.6780  124.5430  211.7410 O.3   1282  MOL1282    -0.4105
  16845  H        172.3550  124.5720  210.8160 H     1282  MOL1282     0.2052
  16846  H        172.0180  124.0410  212.2850 H     1282  MOL1282     0.2052
  16847  O        109.2650   10.2570  256.5860 O.3   1283  MOL1283    -0.4105
  16848  H        108.6330   10.0540  255.8650 H     1283  MOL1283     0.2052
  16849  H        110.1400    9.8490  256.3570 H     1283  MOL1283     0.2052
  16850  O         80.0410   94.6600  183.0720 O.3   1284  MOL1284    -0.4105
  16851  H         80.4170   95.1100  183.8570 H     1284  MOL1284     0.2052
  16852  H         80.1460   93.6810  183.1960 H     1284  MOL1284     0.2052
  16853  O         24.7160   85.4860  145.9000 O.3   1285  MOL1285    -0.4105
  16854  H         24.2020   84.6640  145.7500 H     1285  MOL1285     0.2052
  16855  H         25.0110   85.8320  145.0180 H     1285  MOL1285     0.2052
  16856  O        169.8260    9.9750   47.1550 O.3   1286  MOL1286    -0.4105
  16857  H        170.8000    9.8900   47.2310 H     1286  MOL1286     0.2052
  16858  H        169.4880    9.2050   46.6290 H     1286  MOL1286     0.2052
  16859  O         66.8910  168.2210   22.2260 O.3   1287  MOL1287    -0.4105
  16860  H         66.3900  168.0650   23.0540 H     1287  MOL1287     0.2052
  16861  H         67.2870  167.3590   21.9350 H     1287  MOL1287     0.2052
  16862  O         51.7800   54.5100  183.3340 O.3   1288  MOL1288    -0.4105
  16863  H         52.6090   54.2280  182.8940 H     1288  MOL1288     0.2052
  16864  H         51.7270   55.5000  183.2910 H     1288  MOL1288     0.2052
  16865  O        184.0290   41.3900  193.7390 O.3   1289  MOL1289    -0.4105
  16866  H        184.2970   42.3290  193.6610 H     1289  MOL1289     0.2052
  16867  H        183.0680   41.3200  193.4990 H     1289  MOL1289     0.2052
  16868  O         34.8710  155.4270   26.7940 O.3   1290  MOL1290    -0.4105
  16869  H         34.7300  156.3730   27.0080 H     1290  MOL1290     0.2052
  16870  H         35.8380  155.2880   26.6210 H     1290  MOL1290     0.2052
  16871  O          0.4400  180.4850  285.0610 O.3   1291  MOL1291    -0.4105
  16872  H          0.4140  181.4460  284.8680 H     1291  MOL1291     0.2052
  16873  H          0.8150  180.3620  285.9710 H     1291  MOL1291     0.2052
  16874  O         39.7980  152.5400  275.2970 O.3   1292  MOL1292    -0.4105
  16875  H         40.1710  151.7330  274.8850 H     1292  MOL1292     0.2052
  16876  H         38.8090  152.4600  275.2980 H     1292  MOL1292     0.2052
  16877  O         19.8530   72.6130  245.2500 O.3   1293  MOL1293    -0.4105
  16878  H         20.5500   73.3020  245.2360 H     1293  MOL1293     0.2052
  16879  H         20.2930   71.7250  245.2190 H     1293  MOL1293     0.2052
  16880  O          7.2090  121.4910   26.8810 O.3   1294  MOL1294    -0.4105
  16881  H          7.9470  122.1180   27.0280 H     1294  MOL1294     0.2052
  16882  H          6.3700  122.0140   26.7940 H     1294  MOL1294     0.2052
  16883  O         10.7980  110.9430   14.2330 O.3   1295  MOL1295    -0.4105
  16884  H         11.7120  111.2550   14.3970 H     1295  MOL1295     0.2052
  16885  H         10.1980  111.7340   14.2160 H     1295  MOL1295     0.2052
  16886  O         86.8970   42.2220  111.8270 O.3   1296  MOL1296    -0.4105
  16887  H         87.6520   42.8460  111.8470 H     1296  MOL1296     0.2052
  16888  H         86.0650   42.7440  111.6850 H     1296  MOL1296     0.2052
  16889  O          5.9560   33.6080  174.3600 O.3   1297  MOL1297    -0.4105
  16890  H          6.8560   33.3080  174.6100 H     1297  MOL1297     0.2052
  16891  H          5.6100   34.1900  175.0850 H     1297  MOL1297     0.2052
  16892  O         88.0570  182.3880  236.8420 O.3   1298  MOL1298    -0.4105
  16893  H         88.8370  182.9050  237.1310 H     1298  MOL1298     0.2052
  16894  H         87.4500  182.9940  236.3430 H     1298  MOL1298     0.2052
  16895  O         93.5310  128.3530   73.7170 O.3   1299  MOL1299    -0.4105
  16896  H         93.6910  127.9840   72.8240 H     1299  MOL1299     0.2052
  16897  H         93.9170  129.2670   73.7490 H     1299  MOL1299     0.2052
  16898  O        134.3040   60.1480  201.1790 O.3   1300  MOL1300    -0.4105
  16899  H        134.2900   59.2260  200.8450 H     1300  MOL1300     0.2052
  16900  H        133.4160   60.3490  201.5730 H     1300  MOL1300     0.2052
  16901  O        197.8660  126.5770  111.8310 O.3   1301  MOL1301    -0.4105
  16902  H        198.7510  126.2330  112.0730 H     1301  MOL1301     0.2052
  16903  H        197.9540  127.5460  111.6340 H     1301  MOL1301     0.2052
  16904  O        131.2440  163.8900   94.0650 O.3   1302  MOL1302    -0.4105
  16905  H        131.0560  164.4450   94.8510 H     1302  MOL1302     0.2052
  16906  H        132.1660  163.5330   94.1520 H     1302  MOL1302     0.2052
  16907  O         79.5710  124.4220  250.2020 O.3   1303  MOL1303    -0.4105
  16908  H         80.2410  123.7120  250.1190 H     1303  MOL1303     0.2052
  16909  H         80.0280  125.2450  250.5170 H     1303  MOL1303     0.2052
  16910  O        166.1950  183.4290  174.3080 O.3   1304  MOL1304    -0.4105
  16911  H        167.0630  182.9920  174.1780 H     1304  MOL1304     0.2052
  16912  H        166.3420  184.4100  174.3340 H     1304  MOL1304     0.2052
  16913  O        118.1160  197.6920  251.9960 O.3   1305  MOL1305    -0.4105
  16914  H        117.8230  196.7580  251.9470 H     1305  MOL1305     0.2052
  16915  H        117.3090  198.2680  252.0400 H     1305  MOL1305     0.2052
  16916  O         56.5580   32.3920  266.3790 O.3   1306  MOL1306    -0.4105
  16917  H         56.0640   33.2270  266.5180 H     1306  MOL1306     0.2052
  16918  H         55.9060   31.6810  266.1450 H     1306  MOL1306     0.2052
  16919  O         64.8530  188.8800   61.9440 O.3   1307  MOL1307    -0.4105
  16920  H         65.3110  188.0180   62.0320 H     1307  MOL1307     0.2052
  16921  H         63.9040  188.7550   62.2030 H     1307  MOL1307     0.2052
  16922  O        164.4890   19.9000  167.0420 O.3   1308  MOL1308    -0.4105
  16923  H        165.0960   19.4230  167.6450 H     1308  MOL1308     0.2052
  16924  H        163.8220   19.2520  166.6960 H     1308  MOL1308     0.2052
  16925  O        179.5300  165.9190    3.9830 O.3   1309  MOL1309    -0.4105
  16926  H        179.8130  165.0340    3.6710 H     1309  MOL1309     0.2052
  16927  H        178.5840  165.8570    4.2750 H     1309  MOL1309     0.2052
  16928  O        121.4750   38.3330   78.7800 O.3   1310  MOL1310    -0.4105
  16929  H        121.7940   38.3480   77.8540 H     1310  MOL1310     0.2052
  16930  H        122.1000   37.7790   79.3150 H     1310  MOL1310     0.2052
  16931  O        131.9460   28.2180  195.8570 O.3   1311  MOL1311    -0.4105
  16932  H        132.7500   27.6590  195.8450 H     1311  MOL1311     0.2052
  16933  H        131.1660   27.6360  196.0520 H     1311  MOL1311     0.2052
  16934  O        160.6230   46.3550  163.0450 O.3   1312  MOL1312    -0.4105
  16935  H        161.2270   46.8270  163.6550 H     1312  MOL1312     0.2052
  16936  H        161.0980   45.5580  162.6930 H     1312  MOL1312     0.2052
  16937  O        135.0960   58.2300   16.8740 O.3   1313  MOL1313    -0.4105
  16938  H        135.9410   58.6180   17.1810 H     1313  MOL1313     0.2052
  16939  H        135.2840   57.6640   16.0810 H     1313  MOL1313     0.2052
  16940  O         44.1680  125.4690  269.8270 O.3   1314  MOL1314    -0.4105
  16941  H         45.0280  124.9980  269.8200 H     1314  MOL1314     0.2052
  16942  H         43.5730  125.0370  269.1610 H     1314  MOL1314     0.2052
  16943  O         32.2790   41.6130  266.8030 O.3   1315  MOL1315    -0.4105
  16944  H         32.9990   40.9940  266.5590 H     1315  MOL1315     0.2052
  16945  H         32.5930   42.5380  266.6320 H     1315  MOL1315     0.2052
  16946  O         57.9290  146.0180  284.9600 O.3   1316  MOL1316    -0.4105
  16947  H         57.8020  145.0500  285.0500 H     1316  MOL1316     0.2052
  16948  H         57.0380  146.4380  284.8360 H     1316  MOL1316     0.2052
  16949  O         25.3130   68.2940  146.4000 O.3   1317  MOL1317    -0.4105
  16950  H         25.8750   68.2890  147.2040 H     1317  MOL1317     0.2052
  16951  H         24.3680   68.3950  146.6840 H     1317  MOL1317     0.2052
  16952  O         62.0920  103.3210  177.6950 O.3   1318  MOL1318    -0.4105
  16953  H         62.2350  102.3580  177.5760 H     1318  MOL1318     0.2052
  16954  H         61.1610  103.4590  178.0090 H     1318  MOL1318     0.2052
  16955  O        183.6230  153.5390    6.0300 O.3   1319  MOL1319    -0.4105
  16956  H        183.2160  154.4290    5.9690 H     1319  MOL1319     0.2052
  16957  H        184.5600  153.6040    5.7100 H     1319  MOL1319     0.2052
  16958  O         75.9930   41.4590   39.3240 O.3   1320  MOL1320    -0.4105
  16959  H         76.2890   41.0030   38.5090 H     1320  MOL1320     0.2052
  16960  H         75.0350   41.2470   39.4680 H     1320  MOL1320     0.2052
  16961  O        103.7850  103.0450  263.4720 O.3   1321  MOL1321    -0.4105
  16962  H        102.8640  103.3220  263.6630 H     1321  MOL1321     0.2052
  16963  H        104.3980  103.6310  263.9880 H     1321  MOL1321     0.2052
  16964  O         54.6110  143.3750  281.4650 O.3   1322  MOL1322    -0.4105
  16965  H         55.4010  142.8680  281.7450 H     1322  MOL1322     0.2052
  16966  H         54.5960  144.2290  281.9710 H     1322  MOL1322     0.2052
  16967  O         69.4060  128.2930   60.3670 O.3   1323  MOL1323    -0.4105
  16968  H         69.3670  127.3570   60.6570 H     1323  MOL1323     0.2052
  16969  H         68.4960  128.5670   60.0830 H     1323  MOL1323     0.2052
  16970  O        107.6470  142.0860   13.4530 O.3   1324  MOL1324    -0.4105
  16971  H        108.0980  142.8590   13.0540 H     1324  MOL1324     0.2052
  16972  H        108.2210  141.2880   13.3190 H     1324  MOL1324     0.2052
  16973  O        102.2790  156.7580  253.9800 O.3   1325  MOL1325    -0.4105
  16974  H        102.1650  157.6970  253.7230 H     1325  MOL1325     0.2052
  16975  H        101.6000  156.2200  253.4960 H     1325  MOL1325     0.2052
  16976  O         19.4370   22.0300   63.3380 O.3   1326  MOL1326    -0.4105
  16977  H         19.5160   21.1820   62.8520 H     1326  MOL1326     0.2052
  16978  H         20.2490   22.5700   63.1520 H     1326  MOL1326     0.2052
  16979  O        127.4840   36.8910   49.6320 O.3   1327  MOL1327    -0.4105
  16980  H        127.6270   37.5520   50.3410 H     1327  MOL1327     0.2052
  16981  H        128.3530   36.4550   49.4340 H     1327  MOL1327     0.2052
  16982  O          2.5790  140.2000  238.0240 O.3   1328  MOL1328    -0.4105
  16983  H          3.0500  139.6370  237.3740 H     1328  MOL1328     0.2052
  16984  H          2.2680  141.0190  237.5580 H     1328  MOL1328     0.2052
  16985  O         76.7630  151.5450   61.0330 O.3   1329  MOL1329    -0.4105
  16986  H         75.9500  151.0590   60.7790 H     1329  MOL1329     0.2052
  16987  H         76.9840  151.3100   61.9720 H     1329  MOL1329     0.2052
  16988  O        142.9810  166.3920   63.4580 O.3   1330  MOL1330    -0.4105
  16989  H        142.3050  165.8310   63.8940 H     1330  MOL1330     0.2052
  16990  H        142.5390  166.9000   62.7290 H     1330  MOL1330     0.2052
  16991  O         57.7250  182.4670   19.8220 O.3   1331  MOL1331    -0.4105
  16992  H         57.4080  181.5770   19.5620 H     1331  MOL1331     0.2052
  16993  H         58.7110  182.4280   19.9260 H     1331  MOL1331     0.2052
  16994  O        178.1020  165.7910   20.7710 O.3   1332  MOL1332    -0.4105
  16995  H        177.7430  164.9510   20.4140 H     1332  MOL1332     0.2052
  16996  H        177.4160  166.4970   20.6510 H     1332  MOL1332     0.2052
  16997  O         90.0350  198.4520  259.8190 O.3   1333  MOL1333    -0.4105
  16998  H         90.9400  198.8100  259.9330 H     1333  MOL1333     0.2052
  16999  H         89.4350  199.1980  259.5590 H     1333  MOL1333     0.2052
  17000  O        117.3060   13.9110   11.5320 O.3   1334  MOL1334    -0.4105
  17001  H        116.5500   14.5190   11.3910 H     1334  MOL1334     0.2052
  17002  H        116.9650   13.0890   11.9720 H     1334  MOL1334     0.2052
  17003  O        181.2100  170.7720  164.9330 O.3   1335  MOL1335    -0.4105
  17004  H        181.1600  171.4640  165.6260 H     1335  MOL1335     0.2052
  17005  H        182.1510  170.4640  164.8700 H     1335  MOL1335     0.2052
  17006  O         96.3780  194.5490  147.0720 O.3   1336  MOL1336    -0.4105
  17007  H         96.4350  193.6450  146.6970 H     1336  MOL1336     0.2052
  17008  H         95.4210  194.7670  147.2130 H     1336  MOL1336     0.2052
  17009  O        119.6470   63.2620  221.4150 O.3   1337  MOL1337    -0.4105
  17010  H        119.2950   62.3490  221.3550 H     1337  MOL1337     0.2052
  17011  H        119.7820   63.4800  222.3730 H     1337  MOL1337     0.2052
  17012  O          8.1760  183.1520   75.8620 O.3   1338  MOL1338    -0.4105
  17013  H          8.6560  183.8350   75.3500 H     1338  MOL1338     0.2052
  17014  H          8.6990  182.9530   76.6810 H     1338  MOL1338     0.2052
  17015  O        171.4750  157.7600  163.0330 O.3   1339  MOL1339    -0.4105
  17016  H        170.9240  156.9490  163.0330 H     1339  MOL1339     0.2052
  17017  H        171.8140  157.9050  163.9540 H     1339  MOL1339     0.2052
  17018  O        117.8450   24.5470   20.5590 O.3   1340  MOL1340    -0.4105
  17019  H        118.7090   24.2350   20.8990 H     1340  MOL1340     0.2052
  17020  H        117.8380   25.5390   20.5930 H     1340  MOL1340     0.2052
  17021  O        175.0120  124.0600   58.1910 O.3   1341  MOL1341    -0.4105
  17022  H        174.4530  124.8650   58.1800 H     1341  MOL1341     0.2052
  17023  H        174.4150  123.2670   58.1910 H     1341  MOL1341     0.2052
  17024  O        169.6560   52.7520  126.7360 O.3   1342  MOL1342    -0.4105
  17025  H        169.4200   51.8100  126.8630 H     1342  MOL1342     0.2052
  17026  H        170.1010   52.8440  125.8530 H     1342  MOL1342     0.2052
  17027  O          9.4640  151.0550  169.5960 O.3   1343  MOL1343    -0.4105
  17028  H         10.1250  151.5590  170.1150 H     1343  MOL1343     0.2052
  17029  H          9.3820  150.1500  169.9930 H     1343  MOL1343     0.2052
  17030  O         32.7970   43.9000  241.0170 O.3   1344  MOL1344    -0.4105
  17031  H         32.4720   44.4260  241.7770 H     1344  MOL1344     0.2052
  17032  H         32.3880   44.2650  240.1900 H     1344  MOL1344     0.2052
  17033  O        141.9010   85.7370   64.1460 O.3   1345  MOL1345    -0.4105
  17034  H        141.5000   85.1710   63.4540 H     1345  MOL1345     0.2052
  17035  H        142.3890   85.1510   64.7820 H     1345  MOL1345     0.2052
  17036  O        131.2310   60.4150   47.7470 O.3   1346  MOL1346    -0.4105
  17037  H        131.6950   61.2420   47.9900 H     1346  MOL1346     0.2052
  17038  H        130.2710   60.5190   47.9740 H     1346  MOL1346     0.2052
  17039  O         84.3880   12.2710  201.0850 O.3   1347  MOL1347    -0.4105
  17040  H         83.8200   12.4170  200.3000 H     1347  MOL1347     0.2052
  17041  H         84.2370   11.3460  201.4090 H     1347  MOL1347     0.2052
  17042  O        120.9650  191.0790  121.9310 O.3   1348  MOL1348    -0.4105
  17043  H        121.6020  191.7650  122.2210 H     1348  MOL1348     0.2052
  17044  H        120.0470  191.4310  122.0630 H     1348  MOL1348     0.2052
  17045  O        190.3540  194.6290  214.6270 O.3   1349  MOL1349    -0.4105
  17046  H        189.6450  193.9870  214.4150 H     1349  MOL1349     0.2052
  17047  H        190.6170  195.0900  213.7880 H     1349  MOL1349     0.2052
  17048  O         52.0230   36.5050  265.6160 O.3   1350  MOL1350    -0.4105
  17049  H         52.8140   35.9280  265.5750 H     1350  MOL1350     0.2052
  17050  H         52.1570   37.2610  264.9860 H     1350  MOL1350     0.2052
  17051  O        184.1750  179.6780  186.6840 O.3   1351  MOL1351    -0.4105
  17052  H        184.0730  180.6060  186.3860 H     1351  MOL1351     0.2052
  17053  H        183.3130  179.3820  187.0770 H     1351  MOL1351     0.2052
  17054  O         32.1030   14.0970  233.6610 O.3   1352  MOL1352    -0.4105
  17055  H         32.6830   13.3220  233.8140 H     1352  MOL1352     0.2052
  17056  H         32.6790   14.8790  233.4570 H     1352  MOL1352     0.2052
  17057  O         54.4560  131.5270    9.7740 O.3   1353  MOL1353    -0.4105
  17058  H         53.5530  131.1590    9.8770 H     1353  MOL1353     0.2052
  17059  H         54.3880  132.5160    9.7480 H     1353  MOL1353     0.2052
  17060  O        195.8090  138.7170  238.8560 O.3   1354  MOL1354    -0.4105
  17061  H        195.0020  139.0570  239.2960 H     1354  MOL1354     0.2052
  17062  H        195.6640  137.7600  238.6380 H     1354  MOL1354     0.2052
  17063  O        149.5350  133.1450  198.0470 O.3   1355  MOL1355    -0.4105
  17064  H        148.7710  132.5520  198.2020 H     1355  MOL1355     0.2052
  17065  H        150.1480  132.7010  197.4060 H     1355  MOL1355     0.2052
  17066  O        127.8140   51.3910  160.9400 O.3   1356  MOL1356    -0.4105
  17067  H        128.7370   51.2840  161.2520 H     1356  MOL1356     0.2052
  17068  H        127.6620   50.7530  160.1950 H     1356  MOL1356     0.2052
  17069  O        198.4990  137.4350  191.9880 O.3   1357  MOL1357    -0.4105
  17070  H        199.3180  136.8970  192.0140 H     1357  MOL1357     0.2052
  17071  H        198.7260  138.3600  192.2670 H     1357  MOL1357     0.2052
  17072  O        174.0960  149.3950   98.9360 O.3   1358  MOL1358    -0.4105
  17073  H        173.6890  149.4230   99.8270 H     1358  MOL1358     0.2052
  17074  H        174.0600  150.3080   98.5490 H     1358  MOL1358     0.2052
  17075  O          7.7970   49.0680  102.4250 O.3   1359  MOL1359    -0.4105
  17076  H          7.2240   48.2880  102.5750 H     1359  MOL1359     0.2052
  17077  H          8.1040   49.0510  101.4820 H     1359  MOL1359     0.2052
  17078  O         94.2460  147.2420  270.9290 O.3   1360  MOL1360    -0.4105
  17079  H         93.4820  146.6300  270.9560 H     1360  MOL1360     0.2052
  17080  H         95.0640  146.7280  271.1600 H     1360  MOL1360     0.2052
  17081  O        116.5150  189.9840  126.7440 O.3   1361  MOL1361    -0.4105
  17082  H        116.8240  189.1250  126.3870 H     1361  MOL1361     0.2052
  17083  H        117.2840  190.6110  126.7550 H     1361  MOL1361     0.2052
  17084  O          4.7910  112.4630  289.3030 O.3   1362  MOL1362    -0.4105
  17085  H          3.9540  112.1660  289.7170 H     1362  MOL1362     0.2052
  17086  H          5.4360  111.7090  289.3300 H     1362  MOL1362     0.2052
  17087  O        174.9730   33.5420  132.1750 O.3   1363  MOL1363    -0.4105
  17088  H        174.1970   34.0990  131.9550 H     1363  MOL1363     0.2052
  17089  H        175.7910   34.0920  132.0640 H     1363  MOL1363     0.2052
  17090  O         90.6680   19.1860  195.3090 O.3   1364  MOL1364    -0.4105
  17091  H         90.9950   19.9660  194.8140 H     1364  MOL1364     0.2052
  17092  H         90.7410   18.3910  194.7200 H     1364  MOL1364     0.2052
  17093  O        197.3220   18.0030  230.0300 O.3   1365  MOL1365    -0.4105
  17094  H        197.3920   18.6130  230.7950 H     1365  MOL1365     0.2052
  17095  H        196.4830   18.2120  229.5430 H     1365  MOL1365     0.2052
  17096  O        184.2710  144.7600  159.7920 O.3   1366  MOL1366    -0.4105
  17097  H        183.8230  144.8530  160.6590 H     1366  MOL1366     0.2052
  17098  H        184.0380  143.8710  159.4160 H     1366  MOL1366     0.2052
  17099  O         54.8950    5.6740  243.3440 O.3   1367  MOL1367    -0.4105
  17100  H         54.2550    5.3750  242.6650 H     1367  MOL1367     0.2052
  17101  H         54.8550    6.6640  243.3940 H     1367  MOL1367     0.2052
  17102  O        151.9900  172.1390  166.2160 O.3   1368  MOL1368    -0.4105
  17103  H        152.2520  171.2760  166.6000 H     1368  MOL1368     0.2052
  17104  H        151.3990  172.6000  166.8660 H     1368  MOL1368     0.2052
  17105  O         55.8800   66.3260  288.8970 O.3   1369  MOL1369    -0.4105
  17106  H         56.8390   66.2270  288.7210 H     1369  MOL1369     0.2052
  17107  H         55.6320   67.2740  288.7420 H     1369  MOL1369     0.2052
  17108  O        100.1660   70.8120   51.6180 O.3   1370  MOL1370    -0.4105
  17109  H         99.3470   70.3750   51.9340 H     1370  MOL1370     0.2052
  17110  H        100.7500   70.1210   51.2110 H     1370  MOL1370     0.2052
  17111  O        148.5560  153.2110   33.0170 O.3   1371  MOL1371    -0.4105
  17112  H        149.5080  153.3820   33.1730 H     1371  MOL1371     0.2052
  17113  H        148.3890  152.2420   33.1470 H     1371  MOL1371     0.2052
  17114  O        146.1730   98.5520   57.4420 O.3   1372  MOL1372    -0.4105
  17115  H        147.1450   98.4450   57.5070 H     1372  MOL1372     0.2052
  17116  H        145.9740   99.5150   57.3120 H     1372  MOL1372     0.2052
  17117  O        143.1770   85.7720   37.3740 O.3   1373  MOL1373    -0.4105
  17118  H        142.8270   86.6400   37.6650 H     1373  MOL1373     0.2052
  17119  H        144.0810   85.6540   37.7660 H     1373  MOL1373     0.2052
  17120  O        108.1770   70.9330  229.0810 O.3   1374  MOL1374    -0.4105
  17121  H        108.6390   70.0720  229.1480 H     1374  MOL1374     0.2052
  17122  H        107.4400   70.8400  228.4230 H     1374  MOL1374     0.2052
  17123  O        109.6600  104.8440    9.8620 O.3   1375  MOL1375    -0.4105
  17124  H        109.6200  105.8230    9.8740 H     1375  MOL1375     0.2052
  17125  H        108.8040  104.5030    9.4940 H     1375  MOL1375     0.2052
  17126  O         16.9630  149.3160   36.4870 O.3   1376  MOL1376    -0.4105
  17127  H         17.1200  150.2780   36.3840 H     1376  MOL1376     0.2052
  17128  H         16.0310  149.1220   36.2050 H     1376  MOL1376     0.2052
  17129  O         34.6700   50.2900   17.8880 O.3   1377  MOL1377    -0.4105
  17130  H         35.2920   49.5330   17.8840 H     1377  MOL1377     0.2052
  17131  H         33.7450   49.9310   17.8910 H     1377  MOL1377     0.2052
  17132  O        124.8430  110.4810  240.3650 O.3   1378  MOL1378    -0.4105
  17133  H        125.6140  111.0850  240.3890 H     1378  MOL1378     0.2052
  17134  H        124.1490  110.8850  239.7820 H     1378  MOL1378     0.2052
  17135  O         53.5220   18.6940   83.9170 O.3   1379  MOL1379    -0.4105
  17136  H         53.8520   19.6030   83.7590 H     1379  MOL1379     0.2052
  17137  H         52.5360   18.6980   83.8020 H     1379  MOL1379     0.2052
  17138  O         97.7690   13.7390   18.7370 O.3   1380  MOL1380    -0.4105
  17139  H         98.6560   14.1520   18.7840 H     1380  MOL1380     0.2052
  17140  H         97.6330   13.2000   19.5590 H     1380  MOL1380     0.2052
  17141  O         36.0130  156.4690  146.7850 O.3   1381  MOL1381    -0.4105
  17142  H         35.5170  157.0850  147.3630 H     1381  MOL1381     0.2052
  17143  H         35.3580  155.9170  146.2840 H     1381  MOL1381     0.2052
  17144  O         14.7290   13.6340  128.8620 O.3   1382  MOL1382    -0.4105
  17145  H         13.9670   13.5190  128.2560 H     1382  MOL1382     0.2052
  17146  H         15.4840   13.0910  128.5160 H     1382  MOL1382     0.2052
  17147  O          7.0670  180.2810   12.4180 O.3   1383  MOL1383    -0.4105
  17148  H          6.5110  179.4740   12.4010 H     1383  MOL1383     0.2052
  17149  H          7.5480  180.3090   13.2850 H     1383  MOL1383     0.2052
  17150  O         79.6040  196.9390  106.2650 O.3   1384  MOL1384    -0.4105
  17151  H         78.6520  197.1300  106.1340 H     1384  MOL1384     0.2052
  17152  H         80.0500  197.7740  106.5640 H     1384  MOL1384     0.2052
  17153  O        153.6470   58.2740  164.7950 O.3   1385  MOL1385    -0.4105
  17154  H        153.5670   57.3550  164.4630 H     1385  MOL1385     0.2052
  17155  H        152.9960   58.8390  164.3040 H     1385  MOL1385     0.2052
  17156  O        150.4530   95.5370   58.0750 O.3   1386  MOL1386    -0.4105
  17157  H        150.8750   96.3760   57.7960 H     1386  MOL1386     0.2052
  17158  H        151.1460   94.9660   58.4980 H     1386  MOL1386     0.2052
  17159  O        175.9650   39.9750  230.0560 O.3   1387  MOL1387    -0.4105
  17160  H        175.9650   39.8050  231.0210 H     1387  MOL1387     0.2052
  17161  H        176.2560   39.1470  229.5950 H     1387  MOL1387     0.2052
  17162  O        103.7100   34.7800   48.5780 O.3   1388  MOL1388    -0.4105
  17163  H        104.3020   35.5480   48.7220 H     1388  MOL1388     0.2052
  17164  H        102.7730   35.0820   48.7040 H     1388  MOL1388     0.2052
  17165  O         30.3700   82.6150  144.4010 O.3   1389  MOL1389    -0.4105
  17166  H         29.7720   81.9790  144.8450 H     1389  MOL1389     0.2052
  17167  H         29.8320   83.4000  144.1170 H     1389  MOL1389     0.2052
  17168  O         71.9650   18.9300   23.7610 O.3   1390  MOL1390    -0.4105
  17169  H         72.3650   19.5050   24.4470 H     1390  MOL1390     0.2052
  17170  H         71.0140   18.7780   24.0000 H     1390  MOL1390     0.2052
  17171  O        160.8610  152.7470  216.4590 O.3   1391  MOL1391    -0.4105
  17172  H        161.0020  151.7900  216.6150 H     1391  MOL1391     0.2052
  17173  H        160.0390  153.0230  216.9420 H     1391  MOL1391     0.2052
  17174  O        184.9970  197.7770  177.6910 O.3   1392  MOL1392    -0.4105
  17175  H        184.7990  198.6460  177.2840 H     1392  MOL1392     0.2052
  17176  H        185.9640  197.7490  177.9100 H     1392  MOL1392     0.2052
  17177  O        171.1050   71.0370  272.6450 O.3   1393  MOL1393    -0.4105
  17178  H        170.9580   71.8980  272.2000 H     1393  MOL1393     0.2052
  17179  H        170.4820   70.3730  272.2500 H     1393  MOL1393     0.2052
  17180  O         10.3430  180.2100    7.3170 O.3   1394  MOL1394    -0.4105
  17181  H          9.8890  180.3630    6.4610 H     1394  MOL1394     0.2052
  17182  H         11.1910  179.7280    7.1360 H     1394  MOL1394     0.2052
  17183  O        177.4640  193.7040   84.1080 O.3   1395  MOL1395    -0.4105
  17184  H        176.8300  194.1670   84.6930 H     1395  MOL1395     0.2052
  17185  H        177.7710  192.8810   84.5710 H     1395  MOL1395     0.2052
  17186  O        185.6280  160.8700    9.1550 O.3   1396  MOL1396    -0.4105
  17187  H        184.8610  160.5710    9.6870 H     1396  MOL1396     0.2052
  17188  H        186.4020  160.9870    9.7650 H     1396  MOL1396     0.2052
  17189  O         31.9440   87.1050  137.7190 O.3   1397  MOL1397    -0.4105
  17190  H         32.1070   86.8340  138.6460 H     1397  MOL1397     0.2052
  17191  H         32.8120   87.0970  137.2370 H     1397  MOL1397     0.2052
  17192  O        110.7810   31.2370  175.4770 O.3   1398  MOL1398    -0.4105
  17193  H        110.7980   32.1610  175.1520 H     1398  MOL1398     0.2052
  17194  H        109.9550   31.1100  176.0110 H     1398  MOL1398     0.2052
  17195  O         90.7090    5.1970  228.3830 O.3   1399  MOL1399    -0.4105
  17196  H         91.1250    4.4770  227.8650 H     1399  MOL1399     0.2052
  17197  H         89.7420    4.9940  228.4770 H     1399  MOL1399     0.2052
  17198  O         47.2700   96.3730    7.3970 O.3   1400  MOL1400    -0.4105
  17199  H         46.5830   96.0230    8.0020 H     1400  MOL1400     0.2052
  17200  H         48.0820   95.8100    7.4900 H     1400  MOL1400     0.2052
  17201  O        170.7830   20.1020   11.7620 O.3   1401  MOL1401    -0.4105
  17202  H        170.7290   21.0740   11.6450 H     1401  MOL1401     0.2052
  17203  H        171.7150   19.8710   12.0110 H     1401  MOL1401     0.2052
  17204  O         94.2910  196.9100   87.2100 O.3   1402  MOL1402    -0.4105
  17205  H         93.4320  197.2290   87.5580 H     1402  MOL1402     0.2052
  17206  H         94.4610  196.0070   87.5840 H     1402  MOL1402     0.2052
  17207  O         46.0380   22.8710  176.9770 O.3   1403  MOL1403    -0.4105
  17208  H         46.1150   23.1420  176.0380 H     1403  MOL1403     0.2052
  17209  H         45.9940   23.6910  177.5350 H     1403  MOL1403     0.2052
  17210  O        193.7710   16.0580  215.8940 O.3   1404  MOL1404    -0.4105
  17211  H        193.9170   15.1430  216.2110 H     1404  MOL1404     0.2052
  17212  H        192.8180   16.2920  216.0460 H     1404  MOL1404     0.2052
  17213  O          3.2440   30.2980  193.5040 O.3   1405  MOL1405    -0.4105
  17214  H          4.1520   30.6100  193.6980 H     1405  MOL1405     0.2052
  17215  H          2.6880   31.0850  193.2680 H     1405  MOL1405     0.2052
  17216  O         66.9820  108.1570  283.9790 O.3   1406  MOL1406    -0.4105
  17217  H         66.1780  108.7090  284.0700 H     1406  MOL1406     0.2052
  17218  H         67.7740  108.7330  284.1370 H     1406  MOL1406     0.2052
  17219  O         35.3970   45.1840  131.1210 O.3   1407  MOL1407    -0.4105
  17220  H         34.4460   44.9480  131.1200 H     1407  MOL1407     0.2052
  17221  H         35.9180   44.3730  131.3570 H     1407  MOL1407     0.2052
  17222  O         63.2590   93.6350  222.0750 O.3   1408  MOL1408    -0.4105
  17223  H         62.9380   92.7360  221.8520 H     1408  MOL1408     0.2052
  17224  H         63.9970   93.8640  221.4530 H     1408  MOL1408     0.2052
  17225  O         89.4770   55.5170  141.5700 O.3   1409  MOL1409    -0.4105
  17226  H         89.5030   56.2960  142.1650 H     1409  MOL1409     0.2052
  17227  H         90.1630   55.6430  140.8640 H     1409  MOL1409     0.2052
  17228  O        187.7400  124.2430  236.0380 O.3   1410  MOL1410    -0.4105
  17229  H        186.9540  124.8280  236.0340 H     1410  MOL1410     0.2052
  17230  H        187.4260  123.3010  236.0480 H     1410  MOL1410     0.2052
  17231  O         17.3260   28.3960  240.5720 O.3   1411  MOL1411    -0.4105
  17232  H         16.4460   28.8240  240.5150 H     1411  MOL1411     0.2052
  17233  H         17.1900   27.4220  240.7050 H     1411  MOL1411     0.2052
  17234  O         47.1640   23.8960  136.9520 O.3   1412  MOL1412    -0.4105
  17235  H         46.4050   24.5150  136.9280 H     1412  MOL1412     0.2052
  17236  H         47.9990   24.4300  136.9850 H     1412  MOL1412     0.2052
  17237  O        175.1530  151.6920   10.1150 O.3   1413  MOL1413    -0.4105
  17238  H        175.9310  152.0300   10.6050 H     1413  MOL1413     0.2052
  17239  H        174.7930  152.4290    9.5570 H     1413  MOL1413     0.2052
  17240  O        177.9580  105.3500  173.8160 O.3   1414  MOL1414    -0.4105
  17241  H        177.4450  105.5740  174.6210 H     1414  MOL1414     0.2052
  17242  H        178.8780  105.7040  173.9270 H     1414  MOL1414     0.2052
  17243  O         95.2310  160.3160  279.4610 O.3   1415  MOL1415    -0.4105
  17244  H         94.9140  160.3250  278.5340 H     1415  MOL1415     0.2052
  17245  H         96.2180  160.4120  279.4520 H     1415  MOL1415     0.2052
  17246  O        104.1720   16.0270  285.4930 O.3   1416  MOL1416    -0.4105
  17247  H        104.2740   15.0520  285.5050 H     1416  MOL1416     0.2052
  17248  H        103.2020   16.2370  285.5030 H     1416  MOL1416     0.2052
  17249  O         81.5380   18.7350  122.7300 O.3   1417  MOL1417    -0.4105
  17250  H         80.9920   18.4090  123.4750 H     1417  MOL1417     0.2052
  17251  H         81.2980   19.6830  122.5610 H     1417  MOL1417     0.2052
  17252  O        133.2760  109.8010   12.6530 O.3   1418  MOL1418    -0.4105
  17253  H        132.6140  110.5240   12.6530 H     1418  MOL1418     0.2052
  17254  H        134.1810  110.2090   12.6530 H     1418  MOL1418     0.2052
  17255  O        114.4050   98.1430  295.2820 O.3   1419  MOL1419    -0.4105
  17256  H        113.5290   98.2790  294.8640 H     1419  MOL1419     0.2052
  17257  H        114.8850   99.0110  295.2870 H     1419  MOL1419     0.2052
  17258  O         73.6790  114.5130  270.5090 O.3   1420  MOL1420    -0.4105
  17259  H         73.6930  114.6020  269.5330 H     1420  MOL1420     0.2052
  17260  H         74.5480  114.1310  270.7990 H     1420  MOL1420     0.2052
  17261  O         92.0110  154.4490   72.0170 O.3   1421  MOL1421    -0.4105
  17262  H         92.0340  153.5670   72.4440 H     1421  MOL1421     0.2052
  17263  H         92.7590  154.5000   71.3680 H     1421  MOL1421     0.2052
  17264  O        166.4470  141.4380  160.5020 O.3   1422  MOL1422    -0.4105
  17265  H        167.1630  141.3410  159.8400 H     1422  MOL1422     0.2052
  17266  H        166.0900  142.3620  160.4390 H     1422  MOL1422     0.2052
  17267  O        150.7880  144.1050    3.4780 O.3   1423  MOL1423    -0.4105
  17268  H        151.2880  143.4140    3.9600 H     1423  MOL1423     0.2052
  17269  H        151.3560  144.9160    3.4200 H     1423  MOL1423     0.2052
  17270  O          5.1740  157.3570   66.3780 O.3   1424  MOL1424    -0.4105
  17271  H          4.7700  156.4670   66.3130 H     1424  MOL1424     0.2052
  17272  H          4.6600  157.8840   67.0430 H     1424  MOL1424     0.2052
  17273  O        172.5460  135.7460    8.7240 O.3   1425  MOL1425    -0.4105
  17274  H        173.0670  136.1780    8.0160 H     1425  MOL1425     0.2052
  17275  H        172.3930  134.8010    8.4630 H     1425  MOL1425     0.2052
  17276  O        175.8760   92.9280   23.1440 O.3   1426  MOL1426    -0.4105
  17277  H        176.7110   93.3160   22.8080 H     1426  MOL1426     0.2052
  17278  H        175.7810   92.0180   22.7620 H     1426  MOL1426     0.2052
  17279  O        180.6850  190.5290   10.3590 O.3   1427  MOL1427    -0.4105
  17280  H        181.6580  190.4450   10.4310 H     1427  MOL1427     0.2052
  17281  H        180.3290  189.6890    9.9670 H     1427  MOL1427     0.2052
  17282  O         36.8910   28.5760  164.0670 O.3   1428  MOL1428    -0.4105
  17283  H         37.1660   27.6620  163.8460 H     1428  MOL1428     0.2052
  17284  H         37.2500   29.1860  163.3710 H     1428  MOL1428     0.2052
  17285  O        163.2090  107.7680  287.9940 O.3   1429  MOL1429    -0.4105
  17286  H        163.0570  106.9480  287.4790 H     1429  MOL1429     0.2052
  17287  H        162.3870  108.3210  287.9460 H     1429  MOL1429     0.2052
  17288  O         22.2260  178.6610  253.7120 O.3   1430  MOL1430    -0.4105
  17289  H         21.6780  179.4710  253.7620 H     1430  MOL1430     0.2052
  17290  H         22.7710  178.7040  252.8840 H     1430  MOL1430     0.2052
  17291  O          1.7380  119.1660    8.6630 O.3   1431  MOL1431    -0.4105
  17292  H          1.6430  119.3360    7.7020 H     1431  MOL1431     0.2052
  17293  H          2.7060  119.1210    8.8760 H     1431  MOL1431     0.2052
  17294  O         92.0870   87.0230  239.9500 O.3   1432  MOL1432    -0.4105
  17295  H         92.6200   87.2390  240.7430 H     1432  MOL1432     0.2052
  17296  H         92.6540   86.4960  239.3290 H     1432  MOL1432     0.2052
  17297  O        122.2810   89.0030   45.9660 O.3   1433  MOL1433    -0.4105
  17298  H        121.4310   88.7200   45.5670 H     1433  MOL1433     0.2052
  17299  H        122.1030   89.3040   46.8950 H     1433  MOL1433     0.2052
  17300  O          4.9600   15.1850  246.2390 O.3   1434  MOL1434    -0.4105
  17301  H          4.9190   14.5480  246.9830 H     1434  MOL1434     0.2052
  17302  H          5.9110   15.3080  245.9870 H     1434  MOL1434     0.2052
  17303  O         56.2480    1.6950  133.9220 O.3   1435  MOL1435    -0.4105
  17304  H         55.9080    1.6280  134.8380 H     1435  MOL1435     0.2052
  17305  H         56.2770    0.7820  133.5340 H     1435  MOL1435     0.2052
  17306  O        169.5340   85.1040  271.2920 O.3   1436  MOL1436    -0.4105
  17307  H        169.7530   86.0590  271.2970 H     1436  MOL1436     0.2052
  17308  H        168.5460   85.0120  271.2670 H     1436  MOL1436     0.2052
  17309  O         97.1150  199.3390  173.3510 O.3   1437  MOL1437    -0.4105
  17310  H         97.9590  199.7670  173.6040 H     1437  MOL1437     0.2052
  17311  H         96.3730  199.9590  173.5740 H     1437  MOL1437     0.2052
  17312  O         39.3740  168.9500  263.8780 O.3   1438  MOL1438    -0.4105
  17313  H         38.8600  169.7790  263.9740 H     1438  MOL1438     0.2052
  17314  H         40.3120  169.1340  264.1430 H     1438  MOL1438     0.2052
  17315  O        143.9510   94.8940  220.4770 O.3   1439  MOL1439    -0.4105
  17316  H        143.5380   95.7820  220.4740 H     1439  MOL1439     0.2052
  17317  H        144.9340   95.0090  220.4150 H     1439  MOL1439     0.2052
  17318  O        123.4780   81.4490  276.2140 O.3   1440  MOL1440    -0.4105
  17319  H        124.2200   81.1960  276.8010 H     1440  MOL1440     0.2052
  17320  H        122.6380   81.0920  276.6040 H     1440  MOL1440     0.2052
  17321  O        109.5870  113.8720  171.2330 O.3   1441  MOL1441    -0.4105
  17322  H        108.7540  114.3850  171.1760 H     1441  MOL1441     0.2052
  17323  H        110.2240  114.2370  170.5650 H     1441  MOL1441     0.2052
  17324  O         72.8350  132.7630  220.1570 O.3   1442  MOL1442    -0.4105
  17325  H         72.6030  131.9930  220.7170 H     1442  MOL1442     0.2052
  17326  H         73.7380  132.6090  219.7750 H     1442  MOL1442     0.2052
  17327  O         71.1330  177.4560  294.3430 O.3   1443  MOL1443    -0.4105
  17328  H         71.9930  177.5060  294.8090 H     1443  MOL1443     0.2052
  17329  H         70.4780  178.0150  294.8360 H     1443  MOL1443     0.2052
  17330  O        103.8760    7.2110   96.1760 O.3   1444  MOL1444    -0.4105
  17331  H        103.1160    6.5980   96.2620 H     1444  MOL1444     0.2052
  17332  H        104.0720    7.3300   95.2110 H     1444  MOL1444     0.2052
  17333  O        172.5700  155.5950  157.9570 O.3   1445  MOL1445    -0.4105
  17334  H        171.6390  155.8040  157.7340 H     1445  MOL1445     0.2052
  17335  H        172.5780  155.0870  158.8090 H     1445  MOL1445     0.2052
  17336  O        106.0470  133.0170   43.3990 O.3   1446  MOL1446    -0.4105
  17337  H        105.1100  132.7320   43.4190 H     1446  MOL1446     0.2052
  17338  H        106.5810  132.3620   43.9200 H     1446  MOL1446     0.2052
  17339  O        126.2760  171.6410  211.0530 O.3   1447  MOL1447    -0.4105
  17340  H        126.9710  172.1960  211.4640 H     1447  MOL1447     0.2052
  17341  H        126.0190  172.0550  210.1880 H     1447  MOL1447     0.2052
  17342  O        194.3550   17.4970  183.3110 O.3   1448  MOL1448    -0.4105
  17343  H        193.4860   17.9380  183.4120 H     1448  MOL1448     0.2052
  17344  H        194.2810   16.5780  183.6760 H     1448  MOL1448     0.2052
  17345  O        130.9750  178.5070   23.5150 O.3   1449  MOL1449    -0.4105
  17346  H        130.8290  179.1220   24.2640 H     1449  MOL1449     0.2052
  17347  H        131.9420  178.2880   23.4770 H     1449  MOL1449     0.2052
  17348  O        189.8220  194.1290  105.0090 O.3   1450  MOL1450    -0.4105
  17349  H        190.4610  194.8690  104.9500 H     1450  MOL1450     0.2052
  17350  H        188.9060  194.5100  105.0220 H     1450  MOL1450     0.2052
  17351  O        163.5930  175.9410  123.2930 O.3   1451  MOL1451    -0.4105
  17352  H        163.8720  176.7540  123.7640 H     1451  MOL1451     0.2052
  17353  H        163.0630  176.2100  122.4980 H     1451  MOL1451     0.2052
  17354  O          7.2880  153.2330  298.7110 O.3   1452  MOL1452    -0.4105
  17355  H          7.1990  153.8900  299.4330 H     1452  MOL1452     0.2052
  17356  H          7.4790  152.3480  299.1180 H     1452  MOL1452     0.2052
  17357  O        141.9630  190.7560  162.8930 O.3   1453  MOL1453    -0.4105
  17358  H        141.1840  191.3510  162.8940 H     1453  MOL1453     0.2052
  17359  H        142.7820  191.3170  162.8940 H     1453  MOL1453     0.2052
  17360  O         23.8980  177.9930  209.2040 O.3   1454  MOL1454    -0.4105
  17361  H         23.6670  178.3570  208.3250 H     1454  MOL1454     0.2052
  17362  H         23.0670  177.9250  209.7410 H     1454  MOL1454     0.2052
  17363  O         36.0370    5.7690  284.4360 O.3   1455  MOL1455    -0.4105
  17364  H         36.6730    6.5000  284.2880 H     1455  MOL1455     0.2052
  17365  H         36.5140    5.0320  284.8990 H     1455  MOL1455     0.2052
  17366  O        128.8430  168.6830  203.5630 O.3   1456  MOL1456    -0.4105
  17367  H        129.1580  169.2560  204.2930 H     1456  MOL1456     0.2052
  17368  H        128.1150  169.1590  203.0860 H     1456  MOL1456     0.2052
  17369  O        108.6520   20.6520  292.5140 O.3   1457  MOL1457    -0.4105
  17370  H        109.1610   20.2150  293.2280 H     1457  MOL1457     0.2052
  17371  H        108.9350   21.6010  292.4660 H     1457  MOL1457     0.2052
  17372  O         33.9320   39.7080  239.1290 O.3   1458  MOL1458    -0.4105
  17373  H         33.8940   38.7610  239.3790 H     1458  MOL1458     0.2052
  17374  H         34.8220   39.8890  238.7300 H     1458  MOL1458     0.2052
  17375  O        192.8550  119.6030  259.7620 O.3   1459  MOL1459    -0.4105
  17376  H        192.5870  118.7210  259.4280 H     1459  MOL1459     0.2052
  17377  H        193.8350  119.6970  259.6410 H     1459  MOL1459     0.2052
  17378  O         54.6570  158.7210   44.1820 O.3   1460  MOL1460    -0.4105
  17379  H         55.6200  158.7150   44.3630 H     1460  MOL1460     0.2052
  17380  H         54.1970  158.2710   44.9370 H     1460  MOL1460     0.2052
  17381  O         52.1710   51.9290   30.8180 O.3   1461  MOL1461    -0.4105
  17382  H         51.2950   52.1000   30.4150 H     1461  MOL1461     0.2052
  17383  H         52.2830   50.9480   30.9130 H     1461  MOL1461     0.2052
  17384  O        147.1940  196.3970  186.2480 O.3   1462  MOL1462    -0.4105
  17385  H        147.0230  197.0140  186.9900 H     1462  MOL1462     0.2052
  17386  H        146.4140  196.4250  185.6360 H     1462  MOL1462     0.2052
  17387  O         15.1850   45.2690   66.5000 O.3   1463  MOL1463    -0.4105
  17388  H         15.9180   45.9190   66.4740 H     1463  MOL1463     0.2052
  17389  H         14.4450   45.6570   67.0340 H     1463  MOL1463     0.2052
  17390  O        175.3590  165.3400  102.8180 O.3   1464  MOL1464    -0.4105
  17391  H        175.1820  164.8150  102.0090 H     1464  MOL1464     0.2052
  17392  H        175.5930  164.7130  103.5500 H     1464  MOL1464     0.2052
  17393  O         87.2300   49.5890  248.1480 O.3   1465  MOL1465    -0.4105
  17394  H         86.3520   49.9740  247.9410 H     1465  MOL1465     0.2052
  17395  H         87.0880   48.7410  248.6420 H     1465  MOL1465     0.2052
  17396  O          6.4800   10.2830  112.9990 O.3   1466  MOL1466    -0.4105
  17397  H          5.8860    9.7240  112.4560 H     1466  MOL1466     0.2052
  17398  H          5.9370   11.0060  113.4080 H     1466  MOL1466     0.2052
  17399  O        112.8290  167.9490   13.0600 O.3   1467  MOL1467    -0.4105
  17400  H        112.9330  168.8270   13.4830 H     1467  MOL1467     0.2052
  17401  H        111.9750  167.9480   12.5550 H     1467  MOL1467     0.2052
  17402  O        189.8170  145.8560  119.0560 O.3   1468  MOL1468    -0.4105
  17403  H        190.4380  146.4770  119.4910 H     1468  MOL1468     0.2052
  17404  H        190.2730  145.4620  118.2680 H     1468  MOL1468     0.2052
  17405  O        136.6320   80.0910   40.3580 O.3   1469  MOL1469    -0.4105
  17406  H        136.5990   79.1140   40.2860 H     1469  MOL1469     0.2052
  17407  H        136.8880   80.4580   39.4720 H     1469  MOL1469     0.2052
  17408  O        107.9950   36.2130  159.4650 O.3   1470  MOL1470    -0.4105
  17409  H        108.6750   36.9170  159.5070 H     1470  MOL1470     0.2052
  17410  H        107.3330   36.4620  158.7690 H     1470  MOL1470     0.2052
  17411  O         21.6380  148.3830  178.3620 O.3   1471  MOL1471    -0.4105
  17412  H         20.7260  148.3060  178.7140 H     1471  MOL1471     0.2052
  17413  H         21.8540  149.3480  178.2700 H     1471  MOL1471     0.2052
  17414  O        170.4550  152.7380  229.6650 O.3   1472  MOL1472    -0.4105
  17415  H        171.3950  152.4620  229.6630 H     1472  MOL1472     0.2052
  17416  H        170.4230  153.7300  229.6580 H     1472  MOL1472     0.2052
  17417  O         98.7660  108.2670  222.4530 O.3   1473  MOL1473    -0.4105
  17418  H         99.1120  107.3500  222.4540 H     1473  MOL1473     0.2052
  17419  H         99.5100  108.8790  222.2180 H     1473  MOL1473     0.2052
  17420  O         47.2970   13.5150  148.4260 O.3   1474  MOL1474    -0.4105
  17421  H         47.6660   13.9150  147.6110 H     1474  MOL1474     0.2052
  17422  H         46.9830   12.5990  148.2080 H     1474  MOL1474     0.2052
  17423  O        169.1730   89.8860   86.6190 O.3   1475  MOL1475    -0.4105
  17424  H        168.8630   90.4290   87.3740 H     1475  MOL1475     0.2052
  17425  H        168.9270   88.9410   86.7930 H     1475  MOL1475     0.2052
  17426  O        194.9640  191.2390   51.5840 O.3   1476  MOL1476    -0.4105
  17427  H        194.0320  191.2130   51.2810 H     1476  MOL1476     0.2052
  17428  H        195.3000  192.1660   51.4740 H     1476  MOL1476     0.2052
  17429  O        152.6020   23.2750  264.4170 O.3   1477  MOL1477    -0.4105
  17430  H        151.8270   23.2510  263.8170 H     1477  MOL1477     0.2052
  17431  H        153.2410   23.9510  264.0710 H     1477  MOL1477     0.2052
  17432  O        147.4710   18.9150  264.2340 O.3   1478  MOL1478    -0.4105
  17433  H        148.1510   18.2260  264.0780 H     1478  MOL1478     0.2052
  17434  H        146.5770   18.4890  264.1760 H     1478  MOL1478     0.2052
  17435  O         26.3360   49.5380   56.7490 O.3   1479  MOL1479    -0.4105
  17436  H         26.8040   50.3990   56.7670 H     1479  MOL1479     0.2052
  17437  H         25.3600   49.7150   56.7180 H     1479  MOL1479     0.2052
  17438  O         42.3490  105.5330  141.4970 O.3   1480  MOL1480    -0.4105
  17439  H         41.4420  105.4610  141.8610 H     1480  MOL1480     0.2052
  17440  H         42.2820  105.6120  140.5100 H     1480  MOL1480     0.2052
  17441  O         27.7710  166.3830  284.9720 O.3   1481  MOL1481    -0.4105
  17442  H         27.6780  167.3480  285.1170 H     1481  MOL1481     0.2052
  17443  H         26.9880  165.9310  285.3820 H     1481  MOL1481     0.2052
  17444  O        134.3350  169.6270  246.5860 O.3   1482  MOL1482    -0.4105
  17445  H        134.1180  170.5810  246.6460 H     1482  MOL1482     0.2052
  17446  H        135.3220  169.5300  246.6250 H     1482  MOL1482     0.2052
  17447  O        144.4450  110.5040  228.8230 O.3   1483  MOL1483    -0.4105
  17448  H        144.1650  111.3880  228.5060 H     1483  MOL1483     0.2052
  17449  H        145.4260  110.5250  228.9740 H     1483  MOL1483     0.2052
  17450  O         80.7400  133.2880  246.6030 O.3   1484  MOL1484    -0.4105
  17451  H         80.7350  132.4620  247.1300 H     1484  MOL1484     0.2052
  17452  H         80.6180  134.0530  247.2240 H     1484  MOL1484     0.2052
  17453  O         11.4400   48.9330    4.5190 O.3   1485  MOL1485    -0.4105
  17454  H         10.8690   48.2660    4.9540 H     1485  MOL1485     0.2052
  17455  H         12.3200   48.5140    4.3320 H     1485  MOL1485     0.2052
  17456  O        156.2770  142.5570  202.2970 O.3   1486  MOL1486    -0.4105
  17457  H        155.4870  142.5380  201.7170 H     1486  MOL1486     0.2052
  17458  H        156.8720  141.8070  202.0370 H     1486  MOL1486     0.2052
  17459  O         88.1500   33.5570  178.5510 O.3   1487  MOL1487    -0.4105
  17460  H         88.4910   32.6890  178.8550 H     1487  MOL1487     0.2052
  17461  H         88.0120   33.5090  177.5690 H     1487  MOL1487     0.2052
  17462  O         96.4550  184.6760  239.8400 O.3   1488  MOL1488    -0.4105
  17463  H         97.2830  185.1990  239.8310 H     1488  MOL1488     0.2052
  17464  H         95.6890  185.3060  239.8280 H     1488  MOL1488     0.2052
  17465  O        161.0810   82.7330  200.4400 O.3   1489  MOL1489    -0.4105
  17466  H        161.2350   82.4030  199.5300 H     1489  MOL1489     0.2052
  17467  H        161.8010   82.3790  201.0240 H     1489  MOL1489     0.2052
  17468  O        160.0600  187.6450  220.9790 O.3   1490  MOL1490    -0.4105
  17469  H        159.8510  188.5420  221.3140 H     1490  MOL1490     0.2052
  17470  H        159.4050  187.0080  221.3660 H     1490  MOL1490     0.2052
  17471  O        114.5760   67.2070   24.0680 O.3   1491  MOL1491    -0.4105
  17472  H        115.4950   67.5430   24.1290 H     1491  MOL1491     0.2052
  17473  H        114.6080   66.2160   24.0500 H     1491  MOL1491     0.2052
  17474  O        128.9140   52.3940   26.4620 O.3   1492  MOL1492    -0.4105
  17475  H        128.1990   53.0410   26.6380 H     1492  MOL1492     0.2052
  17476  H        129.3920   52.6760   25.6390 H     1492  MOL1492     0.2052
  17477  O         99.5460   40.6770   34.9580 O.3   1493  MOL1493    -0.4105
  17478  H        100.2960   40.2740   35.4430 H     1493  MOL1493     0.2052
  17479  H         99.1000   39.9650   34.4290 H     1493  MOL1493     0.2052
  17480  O        165.2120  110.1960   59.3210 O.3   1494  MOL1494    -0.4105
  17481  H        165.0910  110.4590   60.2570 H     1494  MOL1494     0.2052
  17482  H        164.6690  109.3830   59.1540 H     1494  MOL1494     0.2052
  17483  O        181.3830    8.5910   26.5650 O.3   1495  MOL1495    -0.4105
  17484  H        180.7250    8.1510   25.9860 H     1495  MOL1495     0.2052
  17485  H        181.6170    9.4660   26.1590 H     1495  MOL1495     0.2052
  17486  O          4.9810  137.2760  178.3200 O.3   1496  MOL1496    -0.4105
  17487  H          4.6690  137.6320  179.1790 H     1496  MOL1496     0.2052
  17488  H          5.4360  136.4110  178.4900 H     1496  MOL1496     0.2052
  17489  O        167.8820  166.9630   66.3650 O.3   1497  MOL1497    -0.4105
  17490  H        168.5520  166.4750   65.8430 H     1497  MOL1497     0.2052
  17491  H        167.0330  166.9690   65.8520 H     1497  MOL1497     0.2052
  17492  O        173.7060   59.4640  299.3090 O.3   1498  MOL1498    -0.4105
  17493  H        173.9290   59.5050  298.3550 H     1498  MOL1498     0.2052
  17494  H        172.8240   59.0200  299.4030 H     1498  MOL1498     0.2052
  17495  O        135.4530   72.8180  171.0280 O.3   1499  MOL1499    -0.4105
  17496  H        134.9050   72.0080  170.9660 H     1499  MOL1499     0.2052
  17497  H        136.3280   72.6340  170.5970 H     1499  MOL1499     0.2052
  17498  O         61.1800  172.2380  247.3360 O.3   1500  MOL1500    -0.4105
  17499  H         61.4650  171.5640  247.9880 H     1500  MOL1500     0.2052
  17500  H         60.7830  171.7680  246.5570 H     1500  MOL1500     0.2052
  17501  O        101.6220  127.4580   12.8450 O.3   1501  MOL1501    -0.4105
  17502  H        101.4470  126.6990   13.4400 H     1501  MOL1501     0.2052
  17503  H        102.6000  127.6280   12.8370 H     1501  MOL1501     0.2052
  17504  O        199.4080  111.5870   78.4580 O.3   1502  MOL1502    -0.4105
  17505  H        198.7690  112.3300   78.4690 H     1502  MOL1502     0.2052
  17506  H        198.9850  110.8210   77.9890 H     1502  MOL1502     0.2052
  17507  O        171.5580   37.6730  275.6200 O.3   1503  MOL1503    -0.4105
  17508  H        171.7750   37.1970  276.4490 H     1503  MOL1503     0.2052
  17509  H        172.2930   38.3110  275.4270 H     1503  MOL1503     0.2052
  17510  O        133.4660  110.5630   38.7660 O.3   1504  MOL1504    -0.4105
  17511  H        134.2480  110.0070   38.5630 H     1504  MOL1504     0.2052
  17512  H        132.8020  110.0020   39.2450 H     1504  MOL1504     0.2052
  17513  O        123.4940   74.4920  222.1980 O.3   1505  MOL1505    -0.4105
  17514  H        122.8910   73.8120  221.8300 H     1505  MOL1505     0.2052
  17515  H        123.8810   74.1390  223.0410 H     1505  MOL1505     0.2052
  17516  O         99.7130   45.1860    2.1540 O.3   1506  MOL1506    -0.4105
  17517  H        100.1760   44.7820    1.3900 H     1506  MOL1506     0.2052
  17518  H        100.3020   45.1110    2.9490 H     1506  MOL1506     0.2052
  17519  O         93.9840   90.2750  250.9260 O.3   1507  MOL1507    -0.4105
  17520  H         94.8390   90.3570  250.4540 H     1507  MOL1507     0.2052
  17521  H         93.4780   89.5220  250.5240 H     1507  MOL1507     0.2052
  17522  O        115.6840   48.0820   65.2330 O.3   1508  MOL1508    -0.4105
  17523  H        116.0780   47.8800   66.1080 H     1508  MOL1508     0.2052
  17524  H        115.9990   47.3990   64.5860 H     1508  MOL1508     0.2052
  17525  O          8.1690    0.7850  268.1080 O.3   1509  MOL1509    -0.4105
  17526  H          8.6380    0.8880  268.9620 H     1509  MOL1509     0.2052
  17527  H          8.6390    1.3330  267.4280 H     1509  MOL1509     0.2052
  17528  O         72.5820  197.1980  103.3390 O.3   1510  MOL1510    -0.4105
  17529  H         71.6200  197.0400  103.2410 H     1510  MOL1510     0.2052
  17530  H         72.7180  197.8340  104.0880 H     1510  MOL1510     0.2052
  17531  O         12.0810   50.6630  135.1060 O.3   1511  MOL1511    -0.4105
  17532  H         12.9300   50.6670  135.5950 H     1511  MOL1511     0.2052
  17533  H         11.5600   51.4610  135.3830 H     1511  MOL1511     0.2052
  17534  O         23.5150  158.6560    3.7600 O.3   1512  MOL1512    -0.4105
  17535  H         24.4410  158.8140    4.0410 H     1512  MOL1512     0.2052
  17536  H         23.1370  157.9360    4.3280 H     1512  MOL1512     0.2052
  17537  O         30.3000   10.0740  237.5380 O.3   1513  MOL1513    -0.4105
  17538  H         30.5710   10.6200  238.3060 H     1513  MOL1513     0.2052
  17539  H         30.1670   10.6750  236.7600 H     1513  MOL1513     0.2052
  17540  O         83.2500  163.2110  261.3080 O.3   1514  MOL1514    -0.4105
  17541  H         83.9690  162.6230  260.9940 H     1514  MOL1514     0.2052
  17542  H         83.2490  163.1970  262.3000 H     1514  MOL1514     0.2052
  17543  O        111.8220   68.7430  266.0990 O.3   1515  MOL1515    -0.4105
  17544  H        112.5660   68.1080  266.1670 H     1515  MOL1515     0.2052
  17545  H        112.1960   69.6350  265.8780 H     1515  MOL1515     0.2052
  17546  O        152.4100   22.6000  224.7900 O.3   1516  MOL1516    -0.4105
  17547  H        153.1890   22.3650  224.2450 H     1516  MOL1516     0.2052
  17548  H        152.0610   21.7710  225.2080 H     1516  MOL1516     0.2052
  17549  O        144.7720   40.1600  288.7670 O.3   1517  MOL1517    -0.4105
  17550  H        144.2580   39.5640  288.1840 H     1517  MOL1517     0.2052
  17551  H        144.2620   41.0040  288.8770 H     1517  MOL1517     0.2052
  17552  O          5.5070  182.0090   26.1170 O.3   1518  MOL1518    -0.4105
  17553  H          5.5380  181.6610   25.2010 H     1518  MOL1518     0.2052
  17554  H          5.7700  182.9650   26.0940 H     1518  MOL1518     0.2052
  17555  O         67.3050  183.5610  141.3560 O.3   1519  MOL1519    -0.4105
  17556  H         68.1320  183.9550  141.0090 H     1519  MOL1519     0.2052
  17557  H         66.6060  184.2660  141.3690 H     1519  MOL1519     0.2052
  17558  O        156.7590  144.8840  248.7320 O.3   1520  MOL1520    -0.4105
  17559  H        156.9540  143.9660  249.0130 H     1520  MOL1520     0.2052
  17560  H        155.7900  145.0500  248.8640 H     1520  MOL1520     0.2052
  17561  O        196.5020    2.0280  249.3570 O.3   1521  MOL1521    -0.4105
  17562  H        196.2940    2.9720  249.5190 H     1521  MOL1521     0.2052
  17563  H        195.7330    1.6180  248.8800 H     1521  MOL1521     0.2052
  17564  O         82.3820   34.5550   76.7530 O.3   1522  MOL1522    -0.4105
  17565  H         82.0720   33.6270   76.8070 H     1522  MOL1522     0.2052
  17566  H         81.6120   35.1250   76.4950 H     1522  MOL1522     0.2052
  17567  O         87.0040  115.0670   21.8600 O.3   1523  MOL1523    -0.4105
  17568  H         87.3980  115.9620   21.7880 H     1523  MOL1523     0.2052
  17569  H         87.7390  114.4150   22.0000 H     1523  MOL1523     0.2052
  17570  O         52.9410  129.8470  284.0570 O.3   1524  MOL1524    -0.4105
  17571  H         52.2230  130.0410  283.4180 H     1524  MOL1524     0.2052
  17572  H         53.0980  130.6610  284.6030 H     1524  MOL1524     0.2052
  17573  O         91.0820  134.3160  256.1650 O.3   1525  MOL1525    -0.4105
  17574  H         91.9610  133.9380  255.9550 H     1525  MOL1525     0.2052
  17575  H         90.6180  133.6970  256.7860 H     1525  MOL1525     0.2052
  17576  O         57.6540   49.7440  192.5830 O.3   1526  MOL1526    -0.4105
  17577  H         56.9210   50.3840  192.4690 H     1526  MOL1526     0.2052
  17578  H         57.2610   48.8490  192.7500 H     1526  MOL1526     0.2052
  17579  O        198.4310   86.9860   76.9080 O.3   1527  MOL1527    -0.4105
  17580  H        198.2170   86.1940   76.3720 H     1527  MOL1527     0.2052
  17581  H        199.4060   87.1560   76.8350 H     1527  MOL1527     0.2052
  17582  O         43.6680   74.9210   22.1280 O.3   1528  MOL1528    -0.4105
  17583  H         43.0260   74.3300   22.5750 H     1528  MOL1528     0.2052
  17584  H         44.2140   74.3710   21.5080 H     1528  MOL1528     0.2052
  17585  O        130.2830  180.2690  197.0970 O.3   1529  MOL1529    -0.4105
  17586  H        129.7470  181.0490  196.8390 H     1529  MOL1529     0.2052
  17587  H        131.2300  180.5540  197.1690 H     1529  MOL1529     0.2052
  17588  O         98.4340   60.9070   40.5720 O.3   1530  MOL1530    -0.4105
  17589  H         99.2730   60.7120   41.0400 H     1530  MOL1530     0.2052
  17590  H         98.5850   61.6870   39.9780 H     1530  MOL1530     0.2052
  17591  O          6.8610  196.6160   46.5930 O.3   1531  MOL1531    -0.4105
  17592  H          6.0360  196.9250   47.0230 H     1531  MOL1531     0.2052
  17593  H          7.2370  195.8770   47.1380 H     1531  MOL1531     0.2052
  17594  O          3.8030  126.8370  272.2230 O.3   1532  MOL1532    -0.4105
  17595  H          3.1590  126.3890  271.6350 H     1532  MOL1532     0.2052
  17596  H          4.2080  126.1530  272.8170 H     1532  MOL1532     0.2052
  17597  O         70.4040  144.2450   51.9220 O.3   1533  MOL1533    -0.4105
  17598  H         71.3010  143.8500   51.9480 H     1533  MOL1533     0.2052
  17599  H         70.5010  145.2330   51.9270 H     1533  MOL1533     0.2052
  17600  O         13.3410   60.2820  153.2600 O.3   1534  MOL1534    -0.4105
  17601  H         14.2520   60.4950  152.9680 H     1534  MOL1534     0.2052
  17602  H         13.3860   59.5080  153.8780 H     1534  MOL1534     0.2052
  17603  O         37.4640   34.4060   61.1490 O.3   1535  MOL1535    -0.4105
  17604  H         36.9950   34.4510   62.0080 H     1535  MOL1535     0.2052
  17605  H         38.0870   33.6330   61.1770 H     1535  MOL1535     0.2052
  17606  O         41.2630   44.3550  298.7090 O.3   1536  MOL1536    -0.4105
  17607  H         40.8890   43.4500  298.7000 H     1536  MOL1536     0.2052
  17608  H         42.0050   44.3910  298.0500 H     1536  MOL1536     0.2052
  17609  O         17.4210   75.5980  227.5780 O.3   1537  MOL1537    -0.4105
  17610  H         16.7110   76.2730  227.5380 H     1537  MOL1537     0.2052
  17611  H         18.1780   75.9100  227.0180 H     1537  MOL1537     0.2052
  17612  O        164.8130  171.2000   18.2110 O.3   1538  MOL1538    -0.4105
  17613  H        164.3210  171.6170   17.4730 H     1538  MOL1538     0.2052
  17614  H        165.7810  171.3680   18.0730 H     1538  MOL1538     0.2052
  17615  O        154.1820   82.4710  229.0830 O.3   1539  MOL1539    -0.4105
  17616  H        153.6560   81.6750  228.8610 H     1539  MOL1539     0.2052
  17617  H        155.1190   82.1880  229.2460 H     1539  MOL1539     0.2052
  17618  O          6.1550  130.2910  118.9210 O.3   1540  MOL1540    -0.4105
  17619  H          5.4000  130.8690  119.1590 H     1540  MOL1540     0.2052
  17620  H          6.9200  130.8690  118.6670 H     1540  MOL1540     0.2052
  17621  O        194.6570   87.5370  197.9110 O.3   1541  MOL1541    -0.4105
  17622  H        194.3940   87.8720  198.7940 H     1541  MOL1541     0.2052
  17623  H        193.8900   87.6570  197.2920 H     1541  MOL1541     0.2052
  17624  O         77.3890   36.1170   48.5180 O.3   1542  MOL1542    -0.4105
  17625  H         76.9150   35.2600   48.4860 H     1542  MOL1542     0.2052
  17626  H         78.0640   36.0710   49.2440 H     1542  MOL1542     0.2052
  17627  O         53.4880    9.0510  221.7860 O.3   1543  MOL1543    -0.4105
  17628  H         52.6200    9.2050  221.3580 H     1543  MOL1543     0.2052
  17629  H         54.0130    8.4370  221.2100 H     1543  MOL1543     0.2052
  17630  O        180.1630  193.1890   25.1000 O.3   1544  MOL1544    -0.4105
  17631  H        180.6310  192.3510   25.2980 H     1544  MOL1544     0.2052
  17632  H        179.6930  193.4840   25.9220 H     1544  MOL1544     0.2052
  17633  O        178.2820  190.2480  142.1700 O.3   1545  MOL1545    -0.4105
  17634  H        179.0820  189.7220  141.9600 H     1545  MOL1545     0.2052
  17635  H        177.4940  189.6460  142.1260 H     1545  MOL1545     0.2052
  17636  O        175.8660  145.4420   54.6440 O.3   1546  MOL1546    -0.4105
  17637  H        175.0250  145.6160   55.1170 H     1546  MOL1546     0.2052
  17638  H        175.8240  144.5270   54.2630 H     1546  MOL1546     0.2052
  17639  O         46.1630  104.2860   10.4500 O.3   1547  MOL1547    -0.4105
  17640  H         45.4800  104.5290    9.7900 H     1547  MOL1547     0.2052
  17641  H         46.1290  103.3030   10.5830 H     1547  MOL1547     0.2052
  17642  O         35.6420  103.5740   13.3890 O.3   1548  MOL1548    -0.4105
  17643  H         35.7650  104.5240   13.1790 H     1548  MOL1548     0.2052
  17644  H         34.6680  103.3890   13.4310 H     1548  MOL1548     0.2052
  17645  O         27.0720  138.8250  120.0280 O.3   1549  MOL1549    -0.4105
  17646  H         27.3260  139.1600  119.1430 H     1549  MOL1549     0.2052
  17647  H         26.0810  138.8080  120.0810 H     1549  MOL1549     0.2052
  17648  O        112.1060  170.9630  202.4520 O.3   1550  MOL1550    -0.4105
  17649  H        111.3000  171.2390  201.9680 H     1550  MOL1550     0.2052
  17650  H        111.8400  170.3160  203.1560 H     1550  MOL1550     0.2052
  17651  O         16.8990   61.3540  281.0050 O.3   1551  MOL1551    -0.4105
  17652  H         16.4400   60.4950  281.1070 H     1551  MOL1551     0.2052
  17653  H         16.2180   62.0490  280.8120 H     1551  MOL1551     0.2052
  17654  O         48.3350  118.1210   88.8350 O.3   1552  MOL1552    -0.4105
  17655  H         47.4540  118.0480   89.2590 H     1552  MOL1552     0.2052
  17656  H         48.2350  118.6530   88.0030 H     1552  MOL1552     0.2052
  17657  O        105.6370   55.4990  268.5900 O.3   1553  MOL1553    -0.4105
  17658  H        106.3600   54.9500  268.2210 H     1553  MOL1553     0.2052
  17659  H        105.7850   56.4380  268.3050 H     1553  MOL1553     0.2052
  17660  O         12.6100  192.5410  297.8100 O.3   1554  MOL1554    -0.4105
  17661  H         13.4100  193.1020  297.7290 H     1554  MOL1554     0.2052
  17662  H         12.8940  191.6380  298.1090 H     1554  MOL1554     0.2052
  17663  O        159.1670  156.7560  184.8250 O.3   1555  MOL1555    -0.4105
  17664  H        159.8270  157.3170  184.3650 H     1555  MOL1555     0.2052
  17665  H        159.5140  155.8270  184.8510 H     1555  MOL1555     0.2052
  17666  O        133.1660  107.7760    3.1800 O.3   1556  MOL1556    -0.4105
  17667  H        132.8030  107.0710    3.7560 H     1556  MOL1556     0.2052
  17668  H        134.1130  107.9280    3.4330 H     1556  MOL1556     0.2052
  17669  O          8.6980   73.2510    6.3620 O.3   1557  MOL1557    -0.4105
  17670  H          8.2320   73.7080    7.0930 H     1557  MOL1557     0.2052
  17671  H          8.7060   73.8540    5.5740 H     1557  MOL1557     0.2052
  17672  O        190.4370  182.6740  231.8160 O.3   1558  MOL1558    -0.4105
  17673  H        189.7700  182.1920  231.2850 H     1558  MOL1558     0.2052
  17674  H        189.9720  183.3890  232.3240 H     1558  MOL1558     0.2052
  17675  O         46.7590   97.0280    1.7880 O.3   1559  MOL1559    -0.4105
  17676  H         46.0450   97.5910    2.1540 H     1559  MOL1559     0.2052
  17677  H         46.5840   96.0890    2.0580 H     1559  MOL1559     0.2052
  17678  O        184.3460   32.5040  113.1570 O.3   1560  MOL1560    -0.4105
  17679  H        183.3780   32.6010  113.0370 H     1560  MOL1560     0.2052
  17680  H        184.7280   33.4020  113.3350 H     1560  MOL1560     0.2052
  17681  O         69.1400  115.6790    6.1300 O.3   1561  MOL1561    -0.4105
  17682  H         68.8150  116.0460    5.2820 H     1561  MOL1561     0.2052
  17683  H         68.3760  115.2480    6.5950 H     1561  MOL1561     0.2052
  17684  O        192.5260   96.0270  240.1540 O.3   1562  MOL1562    -0.4105
  17685  H        192.7860   95.0870  240.0550 H     1562  MOL1562     0.2052
  17686  H        191.5360   96.0820  240.1110 H     1562  MOL1562     0.2052
  17687  O         54.1610  193.3190  164.8810 O.3   1563  MOL1563    -0.4105
  17688  H         53.8910  192.8470  165.6960 H     1563  MOL1563     0.2052
  17689  H         53.3890  193.8540  164.5630 H     1563  MOL1563     0.2052
  17690  O        115.3110  196.8830  235.8920 O.3   1564  MOL1564    -0.4105
  17691  H        114.9270  197.7070  236.2570 H     1564  MOL1564     0.2052
  17692  H        114.7220  196.5630  235.1610 H     1564  MOL1564     0.2052
  17693  O         86.5660  181.8380  131.0010 O.3   1565  MOL1565    -0.4105
  17694  H         87.0830  182.3550  131.6530 H     1565  MOL1565     0.2052
  17695  H         85.7650  182.3660  130.7500 H     1565  MOL1565     0.2052
  17696  O         11.5900  111.7460   24.8140 O.3   1566  MOL1566    -0.4105
  17697  H         12.4940  111.6740   25.1860 H     1566  MOL1566     0.2052
  17698  H         11.5310  112.5930   24.3020 H     1566  MOL1566     0.2052
  17699  O        144.7670  171.2930  188.2330 O.3   1567  MOL1567    -0.4105
  17700  H        143.9350  171.6770  187.8840 H     1567  MOL1567     0.2052
  17701  H        145.3850  171.1450  187.4710 H     1567  MOL1567     0.2052
  17702  O         31.3510    5.0860   97.9430 O.3   1568  MOL1568    -0.4105
  17703  H         31.5610    6.0430   97.9170 H     1568  MOL1568     0.2052
  17704  H         32.1980    4.5860   98.0810 H     1568  MOL1568     0.2052
  17705  O        165.7190   74.1340  165.5520 O.3   1569  MOL1569    -0.4105
  17706  H        166.6900   74.0050  165.5390 H     1569  MOL1569     0.2052
  17707  H        165.2860   73.2420  165.5380 H     1569  MOL1569     0.2052
  17708  O         14.2960  152.8880  158.7650 O.3   1570  MOL1570    -0.4105
  17709  H         13.8860  152.9970  157.8810 H     1570  MOL1570     0.2052
  17710  H         14.8370  152.0550  158.7550 H     1570  MOL1570     0.2052
  17711  O         30.8690   36.2900  258.2200 O.3   1571  MOL1571    -0.4105
  17712  H         30.9830   35.3190  258.2750 H     1571  MOL1571     0.2052
  17713  H         29.9080   36.4980  258.3560 H     1571  MOL1571     0.2052
  17714  O        112.9200    8.5480   78.1660 O.3   1572  MOL1572    -0.4105
  17715  H        113.8560    8.5030   78.4530 H     1572  MOL1572     0.2052
  17716  H        112.5530    9.4280   78.4410 H     1572  MOL1572     0.2052
  17717  O        162.0720    4.6790   15.4180 O.3   1573  MOL1573    -0.4105
  17718  H        161.4390    4.0290   15.7900 H     1573  MOL1573     0.2052
  17719  H        162.8200    4.7870   16.0610 H     1573  MOL1573     0.2052
  17720  O        114.8350   74.2340  167.2770 O.3   1574  MOL1574    -0.4105
  17721  H        115.1100   74.1270  168.2120 H     1574  MOL1574     0.2052
  17722  H        115.3720   73.6110  166.7230 H     1574  MOL1574     0.2052
  17723  O         77.7170    9.7190   96.2050 O.3   1575  MOL1575    -0.4105
  17724  H         78.0110    8.7970   96.3570 H     1575  MOL1575     0.2052
  17725  H         76.7260    9.7410   96.2520 H     1575  MOL1575     0.2052
  17726  O        115.0240  133.0770  244.3400 O.3   1576  MOL1576    -0.4105
  17727  H        115.0890  134.0130  244.0570 H     1576  MOL1576     0.2052
  17728  H        115.8790  132.8240  244.7750 H     1576  MOL1576     0.2052
  17729  O        135.8640   91.2470  208.1850 O.3   1577  MOL1577    -0.4105
  17730  H        136.8030   91.2270  208.4630 H     1577  MOL1577     0.2052
  17731  H        135.5780   92.1950  208.1250 H     1577  MOL1577     0.2052
  17732  O        141.7770  108.9690  179.7160 O.3   1578  MOL1578    -0.4105
  17733  H        141.7980  109.8560  180.1320 H     1578  MOL1578     0.2052
  17734  H        140.8620  108.8120  179.3650 H     1578  MOL1578     0.2052
  17735  O        107.3610  106.3380  217.5040 O.3   1579  MOL1579    -0.4105
  17736  H        106.3930  106.2430  217.6230 H     1579  MOL1579     0.2052
  17737  H        107.5820  107.3050  217.5260 H     1579  MOL1579     0.2052
  17738  O         67.4580  175.6370   70.7440 O.3   1580  MOL1580    -0.4105
  17739  H         68.1320  176.2950   70.4730 H     1580  MOL1580     0.2052
  17740  H         66.6700  175.7370   70.1490 H     1580  MOL1580     0.2052
  17741  O        154.8550  188.5600  223.2590 O.3   1581  MOL1581    -0.4105
  17742  H        154.7990  187.6350  222.9410 H     1581  MOL1581     0.2052
  17743  H        155.7600  188.7030  223.6400 H     1581  MOL1581     0.2052
  17744  O        138.5830  162.1260  199.7810 O.3   1582  MOL1582    -0.4105
  17745  H        138.2720  162.3560  198.8810 H     1582  MOL1582     0.2052
  17746  H        139.3890  162.6700  199.9800 H     1582  MOL1582     0.2052
  17747  O         63.3300   27.6960  181.4570 O.3   1583  MOL1583    -0.4105
  17748  H         62.8520   27.3380  180.6800 H     1583  MOL1583     0.2052
  17749  H         63.3280   27.0050  182.1690 H     1583  MOL1583     0.2052
  17750  O        116.0700  110.0300  203.0350 O.3   1584  MOL1584    -0.4105
  17751  H        115.3990  109.3250  202.9270 H     1584  MOL1584     0.2052
  17752  H        116.4440  109.9660  203.9520 H     1584  MOL1584     0.2052
  17753  O        191.4680  169.9240   18.0290 O.3   1585  MOL1585    -0.4105
  17754  H        191.5200  168.9480   18.1010 H     1585  MOL1585     0.2052
  17755  H        192.3910  170.2790   17.9510 H     1585  MOL1585     0.2052
  17756  O         36.4590   80.5290  148.4790 O.3   1586  MOL1586    -0.4105
  17757  H         36.7350   80.2870  147.5700 H     1586  MOL1586     0.2052
  17758  H         35.4700   80.6090  148.4920 H     1586  MOL1586     0.2052
  17759  O          0.0010   63.4900  115.3710 O.3   1587  MOL1587    -0.4105
  17760  H          0.6120   63.5700  116.1330 H     1587  MOL1587     0.2052
  17761  H          0.4830   63.7830  114.5550 H     1587  MOL1587     0.2052
  17762  O         98.9960  127.8830  181.2710 O.3   1588  MOL1588    -0.4105
  17763  H         98.0620  128.0950  181.0630 H     1588  MOL1588     0.2052
  17764  H         99.4390  128.7120  181.5910 H     1588  MOL1588     0.2052
  17765  O        103.0970  151.8040   55.1070 O.3   1589  MOL1589    -0.4105
  17766  H        103.1420  152.6950   54.7020 H     1589  MOL1589     0.2052
  17767  H        103.5110  151.1560   54.4800 H     1589  MOL1589     0.2052
  17768  O         58.1820  172.0360  273.8310 O.3   1590  MOL1590    -0.4105
  17769  H         58.6890  171.9760  272.9940 H     1590  MOL1590     0.2052
  17770  H         58.2130  172.9760  274.1460 H     1590  MOL1590     0.2052
  17771  O        183.2180  132.2050  153.0700 O.3   1591  MOL1591    -0.4105
  17772  H        182.6950  132.3050  152.2470 H     1591  MOL1591     0.2052
  17773  H        182.8520  132.8310  153.7480 H     1591  MOL1591     0.2052
  17774  O        119.3760  154.6340  124.5460 O.3   1592  MOL1592    -0.4105
  17775  H        120.3320  154.7760  124.3830 H     1592  MOL1592     0.2052
  17776  H        119.1610  153.6910  124.3240 H     1592  MOL1592     0.2052
  17777  O        114.4600  154.0000   80.6140 O.3   1593  MOL1593    -0.4105
  17778  H        113.6280  154.5110   80.5270 H     1593  MOL1593     0.2052
  17779  H        114.6450  153.8690   81.5800 H     1593  MOL1593     0.2052
  17780  O        113.1600   70.9690  291.9350 O.3   1594  MOL1594    -0.4105
  17781  H        112.6390   71.7780  292.1220 H     1594  MOL1594     0.2052
  17782  H        114.1180   71.2220  291.8810 H     1594  MOL1594     0.2052
  17783  O         58.9770  127.7500   44.9150 O.3   1595  MOL1595    -0.4105
  17784  H         58.0230  127.5570   45.0330 H     1595  MOL1595     0.2052
  17785  H         59.0740  128.7120   44.6900 H     1595  MOL1595     0.2052
  17786  O        133.1920  140.9930  173.1850 O.3   1596  MOL1596    -0.4105
  17787  H        132.2140  140.9560  173.2470 H     1596  MOL1596     0.2052
  17788  H        133.5350  140.0630  173.1300 H     1596  MOL1596     0.2052
  17789  O         47.5850  188.3540   19.2110 O.3   1597  MOL1597    -0.4105
  17790  H         47.9530  188.2750   18.3060 H     1597  MOL1597     0.2052
  17791  H         46.7680  188.9160   19.1660 H     1597  MOL1597     0.2052
  17792  O         56.7140  187.0540  221.2600 O.3   1598  MOL1598    -0.4105
  17793  H         56.8680  187.8550  221.8040 H     1598  MOL1598     0.2052
  17794  H         56.8310  187.2990  220.3060 H     1598  MOL1598     0.2052
  17795  O        168.9520   63.2470   49.7090 O.3   1599  MOL1599    -0.4105
  17796  H        168.2030   63.8780   49.6700 H     1599  MOL1599     0.2052
  17797  H        169.7970   63.7670   49.7000 H     1599  MOL1599     0.2052
  17798  O         21.0690   24.4560   72.9550 O.3   1600  MOL1600    -0.4105
  17799  H         20.9460   24.9530   72.1200 H     1600  MOL1600     0.2052
  17800  H         20.2510   23.9210   73.1220 H     1600  MOL1600     0.2052
  17801  O          8.2950  174.5290  165.5310 O.3   1601  MOL1601    -0.4105
  17802  H          9.2210  174.5730  165.8490 H     1601  MOL1601     0.2052
  17803  H          7.9100  175.4430  165.5700 H     1601  MOL1601     0.2052
  17804  O         26.9600   98.6290  298.1610 O.3   1602  MOL1602    -0.4105
  17805  H         26.1480   99.1720  298.0820 H     1602  MOL1602     0.2052
  17806  H         27.3960   98.8470  299.0260 H     1602  MOL1602     0.2052
  17807  O         91.3010  130.8620  269.2660 O.3   1603  MOL1603    -0.4105
  17808  H         90.8760  129.9850  269.3660 H     1603  MOL1603     0.2052
  17809  H         92.2850  130.7330  269.2790 H     1603  MOL1603     0.2052
  17810  O        166.4900   73.7060   41.4230 O.3   1604  MOL1604    -0.4105
  17811  H        166.1100   74.6040   41.5230 H     1604  MOL1604     0.2052
  17812  H        165.7470   73.0730   41.2440 H     1604  MOL1604     0.2052
  17813  O         97.7590  119.7070   26.5270 O.3   1605  MOL1605    -0.4105
  17814  H         97.8410  120.4030   27.2130 H     1605  MOL1605     0.2052
  17815  H         97.3920  118.8910   26.9550 H     1605  MOL1605     0.2052
  17816  O        165.1250   10.2800  237.4780 O.3   1606  MOL1606    -0.4105
  17817  H        165.8760    9.6940  237.7090 H     1606  MOL1606     0.2052
  17818  H        164.5320    9.7920  236.8510 H     1606  MOL1606     0.2052
  17819  O        104.0000  151.2700  269.6520 O.3   1607  MOL1607    -0.4105
  17820  H        104.3140  151.2950  270.5800 H     1607  MOL1607     0.2052
  17821  H        104.7500  150.9630  269.0790 H     1607  MOL1607     0.2052
  17822  O         97.8090  199.3370  147.1450 O.3   1608  MOL1608    -0.4105
  17823  H         97.6880  199.8820  146.3400 H     1608  MOL1608     0.2052
  17824  H         97.9250  199.9470  147.9190 H     1608  MOL1608     0.2052
  17825  O        114.4060  183.1760   23.8390 O.3   1609  MOL1609    -0.4105
  17826  H        114.6270  183.0930   22.8880 H     1609  MOL1609     0.2052
  17827  H        114.3820  184.1410   24.0690 H     1609  MOL1609     0.2052
  17828  O         50.7280  109.8700   35.4200 O.3   1610  MOL1610    -0.4105
  17829  H         51.4070  110.2630   36.0070 H     1610  MOL1610     0.2052
  17830  H         49.8340  110.1080   35.7760 H     1610  MOL1610     0.2052
  17831  O         63.7960   86.7060  296.7120 O.3   1611  MOL1611    -0.4105
  17832  H         62.9710   86.5060  297.2030 H     1611  MOL1611     0.2052
  17833  H         63.6350   87.5060  296.1470 H     1611  MOL1611     0.2052
  17834  O          3.1880  183.3940  188.9960 O.3   1612  MOL1612    -0.4105
  17835  H          3.6070  183.9180  188.2810 H     1612  MOL1612     0.2052
  17836  H          2.3060  183.0760  188.6710 H     1612  MOL1612     0.2052
  17837  O        175.2280   28.0400  132.0390 O.3   1613  MOL1613    -0.4105
  17838  H        175.2280   28.7960  131.4150 H     1613  MOL1613     0.2052
  17839  H        174.5210   27.4040  131.7570 H     1613  MOL1613     0.2052
  17840  O         22.4260  179.8170  264.2550 O.3   1614  MOL1614    -0.4105
  17841  H         23.1990  180.4180  264.2050 H     1614  MOL1614     0.2052
  17842  H         21.6210  180.3640  264.4500 H     1614  MOL1614     0.2052
  17843  O        135.9710   56.2460  177.3850 O.3   1615  MOL1615    -0.4105
  17844  H        136.9390   56.1010  177.4260 H     1615  MOL1615     0.2052
  17845  H        135.6840   56.1620  176.4380 H     1615  MOL1615     0.2052
  17846  O         86.2220  175.2670  130.1990 O.3   1616  MOL1616    -0.4105
  17847  H         86.4930  174.4850  129.6750 H     1616  MOL1616     0.2052
  17848  H         87.0170  175.8480  130.3230 H     1616  MOL1616     0.2052
  17849  O         40.2380   63.6330  222.0670 O.3   1617  MOL1617    -0.4105
  17850  H         40.8750   62.8920  222.1500 H     1617  MOL1617     0.2052
  17851  H         39.3680   63.2630  221.7670 H     1617  MOL1617     0.2052
  17852  O        192.2890  187.0370    7.2240 O.3   1618  MOL1618    -0.4105
  17853  H        192.6400  186.2070    6.8390 H     1618  MOL1618     0.2052
  17854  H        191.3190  186.9160    7.3910 H     1618  MOL1618     0.2052
  17855  O        136.2740   75.5540  200.5510 O.3   1619  MOL1619    -0.4105
  17856  H        136.7900   76.3650  200.3610 H     1619  MOL1619     0.2052
  17857  H        136.4050   74.9190  199.8000 H     1619  MOL1619     0.2052
  17858  O          7.7600    6.1420  110.4290 O.3   1620  MOL1620    -0.4105
  17859  H          7.9520    7.0490  110.1100 H     1620  MOL1620     0.2052
  17860  H          7.0260    6.1970  111.0950 H     1620  MOL1620     0.2052
  17861  O        177.1990    9.4190   50.7620 O.3   1621  MOL1621    -0.4105
  17862  H        176.5980   10.1490   51.0200 H     1621  MOL1621     0.2052
  17863  H        177.3280    9.4560   49.7790 H     1621  MOL1621     0.2052
  17864  O         34.1780  192.7900  259.3360 O.3   1622  MOL1622    -0.4105
  17865  H         34.7970  193.1550  260.0010 H     1622  MOL1622     0.2052
  17866  H         34.6220  192.8210  258.4490 H     1622  MOL1622     0.2052
  17867  O        131.1650  160.1860   60.1550 O.3   1623  MOL1623    -0.4105
  17868  H        130.3810  159.5990   60.1860 H     1623  MOL1623     0.2052
  17869  H        131.7770  159.8490   59.4500 H     1623  MOL1623     0.2052
  17870  O        103.2620  127.3060  171.3220 O.3   1624  MOL1624    -0.4105
  17871  H        103.6180  126.4100  171.4960 H     1624  MOL1624     0.2052
  17872  H        102.3960  127.2090  170.8460 H     1624  MOL1624     0.2052
  17873  O         68.6590  158.1570  183.9510 O.3   1625  MOL1625    -0.4105
  17874  H         67.7330  157.8370  183.9540 H     1625  MOL1625     0.2052
  17875  H         69.2600  157.3690  183.9690 H     1625  MOL1625     0.2052
  17876  O        141.7190    3.7520  256.3670 O.3   1626  MOL1626    -0.4105
  17877  H        142.4960    3.8920  256.9480 H     1626  MOL1626     0.2052
  17878  H        142.0310    3.3200  255.5300 H     1626  MOL1626     0.2052
  17879  O         16.1650  190.4310    5.4050 O.3   1627  MOL1627    -0.4105
  17880  H         15.2440  190.0990    5.3710 H     1627  MOL1627     0.2052
  17881  H         16.7750  189.6500    5.4590 H     1627  MOL1627     0.2052
  17882  O         78.5730  175.3590  143.3050 O.3   1628  MOL1628    -0.4105
  17883  H         78.1180  176.0520  143.8270 H     1628  MOL1628     0.2052
  17884  H         79.5420  175.3960  143.5170 H     1628  MOL1628     0.2052
  17885  O         52.8470  129.2860  212.2560 O.3   1629  MOL1629    -0.4105
  17886  H         53.3900  129.8100  211.6300 H     1629  MOL1629     0.2052
  17887  H         52.3530  128.5990  211.7380 H     1629  MOL1629     0.2052
  17888  O        161.0330  116.6520  161.8520 O.3   1630  MOL1630    -0.4105
  17889  H        161.7230  116.0090  161.5850 H     1630  MOL1630     0.2052
  17890  H        161.4790  117.5050  162.0920 H     1630  MOL1630     0.2052
  17891  O        143.0210   81.7530   54.4290 O.3   1631  MOL1631    -0.4105
  17892  H        142.7090   80.8740   54.1290 H     1631  MOL1631     0.2052
  17893  H        143.9720   81.8540   54.1630 H     1631  MOL1631     0.2052
  17894  O         14.2750  138.6710    6.6830 O.3   1632  MOL1632    -0.4105
  17895  H         13.6550  137.9250    6.8250 H     1632  MOL1632     0.2052
  17896  H         15.1860  138.3710    6.9400 H     1632  MOL1632     0.2052
  17897  O        193.8140    5.3290  109.1490 O.3   1633  MOL1633    -0.4105
  17898  H        193.8050    6.2750  108.8910 H     1633  MOL1633     0.2052
  17899  H        192.8780    4.9990  109.1510 H     1633  MOL1633     0.2052
  17900  O        149.7960  153.8560  107.5350 O.3   1634  MOL1634    -0.4105
  17901  H        149.1410  154.1250  106.8570 H     1634  MOL1634     0.2052
  17902  H        149.3120  153.3910  108.2660 H     1634  MOL1634     0.2052
  17903  O         29.7000  119.8760    2.1780 O.3   1635  MOL1635    -0.4105
  17904  H         29.2900  120.7630    2.2510 H     1635  MOL1635     0.2052
  17905  H         30.3950  119.9120    1.4710 H     1635  MOL1635     0.2052
  17906  O        154.3260   71.7800  203.8150 O.3   1636  MOL1636    -0.4105
  17907  H        154.5240   70.8390  204.0040 H     1636  MOL1636     0.2052
  17908  H        154.7670   72.3360  204.5090 H     1636  MOL1636     0.2052
  17909  O        156.8290  160.4140  146.8030 O.3   1637  MOL1637    -0.4105
  17910  H        157.7910  160.2270  146.7750 H     1637  MOL1637     0.2052
  17911  H        156.3440  159.5620  146.6520 H     1637  MOL1637     0.2052
  17912  O         44.3510  181.6230  103.4830 O.3   1638  MOL1638    -0.4105
  17913  H         43.5330  182.0660  103.7900 H     1638  MOL1638     0.2052
  17914  H         45.0430  181.7260  104.1860 H     1638  MOL1638     0.2052
  17915  O         37.7470  189.4530  254.0570 O.3   1639  MOL1639    -0.4105
  17916  H         38.1360  189.4700  254.9560 H     1639  MOL1639     0.2052
  17917  H         38.2830  190.0520  253.4750 H     1639  MOL1639     0.2052
  17918  O        136.4880   36.0810  104.2490 O.3   1640  MOL1640    -0.4105
  17919  H        136.5350   35.2330  104.7400 H     1640  MOL1640     0.2052
  17920  H        136.9720   35.9690  103.3900 H     1640  MOL1640     0.2052
  17921  O        148.8490   45.8920   20.8670 O.3   1641  MOL1641    -0.4105
  17922  H        148.9040   46.7470   20.3920 H     1641  MOL1641     0.2052
  17923  H        149.5670   45.2990   20.5240 H     1641  MOL1641     0.2052
  17924  O          9.3300  177.1700  291.5300 O.3   1642  MOL1642    -0.4105
  17925  H          9.5080  178.0030  291.0450 H     1642  MOL1642     0.2052
  17926  H          8.5050  176.7650  291.1570 H     1642  MOL1642     0.2052
  17927  O         44.2560  130.1600   91.6940 O.3   1643  MOL1643    -0.4105
  17928  H         45.2260  130.2170   91.5610 H     1643  MOL1643     0.2052
  17929  H         44.0780  129.4740   92.3900 H     1643  MOL1643     0.2052
  17930  O         92.2200  123.8180  262.1180 O.3   1644  MOL1644    -0.4105
  17931  H         91.2430  123.8150  262.1950 H     1644  MOL1644     0.2052
  17932  H         92.5940  123.3300  262.8980 H     1644  MOL1644     0.2052
  17933  O          3.2780   10.0450  294.2730 O.3   1645  MOL1645    -0.4105
  17934  H          2.6590   10.2770  294.9950 H     1645  MOL1645     0.2052
  17935  H          3.0710    9.1220  293.9710 H     1645  MOL1645     0.2052
  17936  O         75.7070  134.9030    3.2330 O.3   1646  MOL1646    -0.4105
  17937  H         76.0730  135.3190    4.0410 H     1646  MOL1646     0.2052
  17938  H         76.3200  135.0990    2.4780 H     1646  MOL1646     0.2052
  17939  O        111.5910  154.6470  216.7190 O.3   1647  MOL1647    -0.4105
  17940  H        110.7640  155.1290  216.9310 H     1647  MOL1647     0.2052
  17941  H        111.6430  154.5390  215.7340 H     1647  MOL1647     0.2052
  17942  O          4.6310   35.9590    5.5950 O.3   1648  MOL1648    -0.4105
  17943  H          4.6670   34.9940    5.4280 H     1648  MOL1648     0.2052
  17944  H          5.4650   36.3660    5.2430 H     1648  MOL1648     0.2052
  17945  O        142.3700   27.8860   95.3160 O.3   1649  MOL1649    -0.4105
  17946  H        142.4820   27.8150   96.2870 H     1649  MOL1649     0.2052
  17947  H        142.2890   26.9700   94.9450 H     1649  MOL1649     0.2052
  17948  O         82.7450   38.2620   83.5830 O.3   1650  MOL1650    -0.4105
  17949  H         83.6640   38.5960   83.5140 H     1650  MOL1650     0.2052
  17950  H         82.7730   37.3610   83.9970 H     1650  MOL1650     0.2052
  17951  O        146.0060   16.8820   65.9430 O.3   1651  MOL1651    -0.4105
  17952  H        145.2650   17.4990   66.1150 H     1651  MOL1651     0.2052
  17953  H        145.9510   16.1390   66.5970 H     1651  MOL1651     0.2052
  17954  O         53.8580   90.3630  271.2720 O.3   1652  MOL1652    -0.4105
  17955  H         52.9510   90.0400  271.0860 H     1652  MOL1652     0.2052
  17956  H         54.4190   89.5840  271.5240 H     1652  MOL1652     0.2052
  17957  O         33.2950   20.8620   40.2450 O.3   1653  MOL1653    -0.4105
  17958  H         33.6140   19.9850   39.9460 H     1653  MOL1653     0.2052
  17959  H         32.3850   20.7480   40.6250 H     1653  MOL1653     0.2052
  17960  O        153.9860   67.4320  146.7820 O.3   1654  MOL1654    -0.4105
  17961  H        153.3400   67.6980  146.0940 H     1654  MOL1654     0.2052
  17962  H        153.4980   66.9410  147.4930 H     1654  MOL1654     0.2052
  17963  O        156.3790   19.3040  215.7650 O.3   1655  MOL1655    -0.4105
  17964  H        157.2040   18.9940  216.1930 H     1655  MOL1655     0.2052
  17965  H        155.8370   18.5080  215.5220 H     1655  MOL1655     0.2052
  17966  O        118.3490    6.2890  244.7300 O.3   1656  MOL1656    -0.4105
  17967  H        118.5080    5.6940  243.9670 H     1656  MOL1656     0.2052
  17968  H        117.6430    5.8840  245.2970 H     1656  MOL1656     0.2052
  17969  O        103.2490   23.6600  138.6680 O.3   1657  MOL1657    -0.4105
  17970  H        103.3090   24.5330  138.2260 H     1657  MOL1657     0.2052
  17971  H        102.9840   22.9860  137.9900 H     1657  MOL1657     0.2052
  17972  O        172.5740  147.9270  236.1940 O.3   1658  MOL1658    -0.4105
  17973  H        172.9860  147.2200  235.6550 H     1658  MOL1658     0.2052
  17974  H        172.9310  147.8610  237.1180 H     1658  MOL1658     0.2052
  17975  O          3.4250  161.6780   16.9530 O.3   1659  MOL1659    -0.4105
  17976  H          3.7210  162.3770   16.3330 H     1659  MOL1659     0.2052
  17977  H          2.7290  162.0640   17.5460 H     1659  MOL1659     0.2052
  17978  O        151.8870  121.8160   14.3100 O.3   1660  MOL1660    -0.4105
  17979  H        152.6730  121.4080   13.8910 H     1660  MOL1660     0.2052
  17980  H        151.2480  121.0940   14.5410 H     1660  MOL1660     0.2052
  17981  O         13.7640   61.4270  264.8390 O.3   1661  MOL1661    -0.4105
  17982  H         13.1520   61.4350  265.6040 H     1661  MOL1661     0.2052
  17983  H         14.0100   62.3650  264.6280 H     1661  MOL1661     0.2052
  17984  O         90.8950  139.1340  218.6580 O.3   1662  MOL1662    -0.4105
  17985  H         90.4740  138.3600  218.2300 H     1662  MOL1662     0.2052
  17986  H         90.3020  139.4450  219.3900 H     1662  MOL1662     0.2052
  17987  O        123.7780   31.4000  143.5030 O.3   1663  MOL1663    -0.4105
  17988  H        122.8560   31.5810  143.2240 H     1663  MOL1663     0.2052
  17989  H        123.8530   31.5980  144.4730 H     1663  MOL1663     0.2052
  17990  O         32.5230   23.1310  280.7580 O.3   1664  MOL1664    -0.4105
  17991  H         31.6490   22.8430  281.0950 H     1664  MOL1664     0.2052
  17992  H         32.9330   23.7320  281.4330 H     1664  MOL1664     0.2052
  17993  O         66.3360   16.1740  226.6000 O.3   1665  MOL1665    -0.4105
  17994  H         65.7780   16.8320  227.0650 H     1665  MOL1665     0.2052
  17995  H         65.8060   15.7900  225.8540 H     1665  MOL1665     0.2052
  17996  O        189.1720   61.7540   88.6630 O.3   1666  MOL1666    -0.4105
  17997  H        189.0160   60.8140   88.8920 H     1666  MOL1666     0.2052
  17998  H        188.3140   62.1450   88.3550 H     1666  MOL1666     0.2052
  17999  O        146.3560   52.5740  120.8570 O.3   1667  MOL1667    -0.4105
  18000  H        145.8090   51.7810  121.0390 H     1667  MOL1667     0.2052
  18001  H        147.3000   52.2830  120.7580 H     1667  MOL1667     0.2052
  18002  O         23.8970  167.9140   54.4370 O.3   1668  MOL1668    -0.4105
  18003  H         23.0650  167.4050   54.3470 H     1668  MOL1668     0.2052
  18004  H         23.6990  168.8690   54.2510 H     1668  MOL1668     0.2052
  18005  O        133.0940  165.4460  164.0870 O.3   1669  MOL1669    -0.4105
  18006  H        133.1120  166.3030  163.6110 H     1669  MOL1669     0.2052
  18007  H        133.9120  165.3840  164.6460 H     1669  MOL1669     0.2052
  18008  O         76.5780   40.5980   64.2420 O.3   1670  MOL1670    -0.4105
  18009  H         76.7190   41.3610   63.6440 H     1670  MOL1670     0.2052
  18010  H         77.2060   40.6820   65.0060 H     1670  MOL1670     0.2052
  18011  O        187.5630  117.2350  191.2590 O.3   1671  MOL1671    -0.4105
  18012  H        188.4600  117.4790  191.5700 H     1671  MOL1671     0.2052
  18013  H        186.9600  117.2010  192.0460 H     1671  MOL1671     0.2052
  18014  O        136.3650   27.0720   99.5460 O.3   1672  MOL1672    -0.4105
  18015  H        137.3120   27.3250   99.5250 H     1672  MOL1672     0.2052
  18016  H        136.2910   26.1210   99.2730 H     1672  MOL1672     0.2052
  18017  O        169.1070  112.2400  103.2080 O.3   1673  MOL1673    -0.4105
  18018  H        169.4020  111.9440  104.0940 H     1673  MOL1673     0.2052
  18019  H        169.5230  111.6490  102.5280 H     1673  MOL1673     0.2052
  18020  O         74.6620   33.4210  109.3490 O.3   1674  MOL1674    -0.4105
  18021  H         73.7000   33.2730  109.2350 H     1674  MOL1674     0.2052
  18022  H         74.8120   34.3900  109.5000 H     1674  MOL1674     0.2052
  18023  O        171.4580   98.6400  135.3740 O.3   1675  MOL1675    -0.4105
  18024  H        171.2410   99.5430  135.0600 H     1675  MOL1675     0.2052
  18025  H        172.3130   98.6830  135.8760 H     1675  MOL1675     0.2052
  18026  O        125.0680  154.9890  102.2430 O.3   1676  MOL1676    -0.4105
  18027  H        124.5620  154.5300  101.5400 H     1676  MOL1676     0.2052
  18028  H        125.4390  154.3030  102.8560 H     1676  MOL1676     0.2052
  18029  O         18.2500  180.5770  189.4800 O.3   1677  MOL1677    -0.4105
  18030  H         18.6360  181.4120  189.8170 H     1677  MOL1677     0.2052
  18031  H         18.2220  180.6260  188.4890 H     1677  MOL1677     0.2052
  18032  O          2.0560  184.0670  105.6170 O.3   1678  MOL1678    -0.4105
  18033  H          1.9330  183.9530  106.5830 H     1678  MOL1678     0.2052
  18034  H          2.1980  183.1710  105.2150 H     1678  MOL1678     0.2052
  18035  O         44.1790  188.7170  191.9300 O.3   1679  MOL1679    -0.4105
  18036  H         44.8520  189.1490  192.4970 H     1679  MOL1679     0.2052
  18037  H         44.3440  187.7390  191.9430 H     1679  MOL1679     0.2052
  18038  O         28.1370  146.2060  225.6040 O.3   1680  MOL1680    -0.4105
  18039  H         28.4140  147.1460  225.5780 H     1680  MOL1680     0.2052
  18040  H         28.9520  145.6450  225.6800 H     1680  MOL1680     0.2052
  18041  O         38.2920   72.9200  157.1890 O.3   1681  MOL1681    -0.4105
  18042  H         38.9780   72.5770  157.7990 H     1681  MOL1681     0.2052
  18043  H         37.9680   73.7880  157.5430 H     1681  MOL1681     0.2052
  18044  O        165.1170  136.4990  243.5130 O.3   1682  MOL1682    -0.4105
  18045  H        166.0010  136.7100  243.1470 H     1682  MOL1682     0.2052
  18046  H        164.8510  135.6010  243.1850 H     1682  MOL1682     0.2052
  18047  O          8.8950    1.0440  161.3860 O.3   1683  MOL1683    -0.4105
  18048  H          8.7550    1.9700  161.6760 H     1683  MOL1683     0.2052
  18049  H          9.8410    0.8040  161.5600 H     1683  MOL1683     0.2052
  18050  O        126.1330   70.2410  220.1740 O.3   1684  MOL1684    -0.4105
  18051  H        125.7280   69.3550  220.0630 H     1684  MOL1684     0.2052
  18052  H        126.5380   70.2860  221.0790 H     1684  MOL1684     0.2052
  18053  O         61.9590   90.9910   33.7610 O.3   1685  MOL1685    -0.4105
  18054  H         61.7160   90.0670   33.5440 H     1685  MOL1685     0.2052
  18055  H         61.2180   91.3920   34.2850 H     1685  MOL1685     0.2052
  18056  O        124.1910  147.0670  294.1800 O.3   1686  MOL1686    -0.4105
  18057  H        123.9760  146.1320  293.9770 H     1686  MOL1686     0.2052
  18058  H        125.1690  147.1340  294.3320 H     1686  MOL1686     0.2052
  18059  O        120.8310  182.9510  170.3800 O.3   1687  MOL1687    -0.4105
  18060  H        121.4490  183.6640  170.6460 H     1687  MOL1687     0.2052
  18061  H        119.9050  183.2970  170.4580 H     1687  MOL1687     0.2052
  18062  O         11.4680  118.9090  271.4780 O.3   1688  MOL1688    -0.4105
  18063  H         11.3330  117.9380  271.4670 H     1688  MOL1688     0.2052
  18064  H         12.4440  119.0870  271.4660 H     1688  MOL1688     0.2052
  18065  O        165.5310  158.2210   91.7220 O.3   1689  MOL1689    -0.4105
  18066  H        164.9430  158.2950   90.9410 H     1689  MOL1689     0.2052
  18067  H        165.4720  159.0690   92.2350 H     1689  MOL1689     0.2052
  18068  O        196.4240   13.7970  260.2930 O.3   1690  MOL1690    -0.4105
  18069  H        196.2160   14.6780  259.9170 H     1690  MOL1690     0.2052
  18070  H        196.0470   13.7530  261.2090 H     1690  MOL1690     0.2052
  18071  O         15.1730  130.0940  223.7120 O.3   1691  MOL1691    -0.4105
  18072  H         14.8220  129.6950  224.5350 H     1691  MOL1691     0.2052
  18073  H         14.8190  129.5790  222.9410 H     1691  MOL1691     0.2052
  18074  O        127.3850   71.3560   11.6250 O.3   1692  MOL1692    -0.4105
  18075  H        128.1640   71.9510   11.5980 H     1692  MOL1692     0.2052
  18076  H        127.7010   70.4250   11.4940 H     1692  MOL1692     0.2052
  18077  O        168.7230  145.0130  152.6940 O.3   1693  MOL1693    -0.4105
  18078  H        167.9000  144.5910  153.0190 H     1693  MOL1693     0.2052
  18079  H        168.7170  144.9820  151.7030 H     1693  MOL1693     0.2052
  18080  O        184.3470   33.0770   12.3030 O.3   1694  MOL1694    -0.4105
  18081  H        185.2790   33.3790   12.3030 H     1694  MOL1694     0.2052
  18082  H        183.7610   33.8780   12.3010 H     1694  MOL1694     0.2052
  18083  O         15.0230  138.6780   95.5040 O.3   1695  MOL1695    -0.4105
  18084  H         15.6070  139.1860   96.1040 H     1695  MOL1695     0.2052
  18085  H         14.6120  139.3110   94.8600 H     1695  MOL1695     0.2052
  18086  O         16.8880   20.2950   27.4130 O.3   1696  MOL1696    -0.4105
  18087  H         16.3170   20.7860   26.7850 H     1696  MOL1696     0.2052
  18088  H         17.1430   20.9110   28.1480 H     1696  MOL1696     0.2052
  18089  O        108.4030  108.5100    5.8190 O.3   1697  MOL1697    -0.4105
  18090  H        107.7140  107.8190    5.9120 H     1697  MOL1697     0.2052
  18091  H        107.9530  109.3930    5.7640 H     1697  MOL1697     0.2052
  18092  O        191.2920  176.5400   58.8790 O.3   1698  MOL1698    -0.4105
  18093  H        192.0850  176.7530   58.3440 H     1698  MOL1698     0.2052
  18094  H        191.2080  177.2220   59.5950 H     1698  MOL1698     0.2052
  18095  O         81.1640   60.3770   28.2330 O.3   1699  MOL1699    -0.4105
  18096  H         81.4630   61.1680   28.7280 H     1699  MOL1699     0.2052
  18097  H         80.6520   59.7970   28.8550 H     1699  MOL1699     0.2052
  18098  O         77.1540   17.7200  228.0600 O.3   1700  MOL1700    -0.4105
  18099  H         77.3740   18.4700  227.4690 H     1700  MOL1700     0.2052
  18100  H         77.4140   17.9660  228.9850 H     1700  MOL1700     0.2052
  18101  O        174.2610  174.1500  127.8720 O.3   1701  MOL1701    -0.4105
  18102  H        173.4340  174.6680  127.7800 H     1701  MOL1701     0.2052
  18103  H        174.1410  173.5000  128.6110 H     1701  MOL1701     0.2052
  18104  O         72.0220  173.6280   89.2380 O.3   1702  MOL1702    -0.4105
  18105  H         72.5240  172.9810   89.7760 H     1702  MOL1702     0.2052
  18106  H         72.4330  173.6660   88.3360 H     1702  MOL1702     0.2052
  18107  O        137.3390   13.8450  195.7550 O.3   1703  MOL1703    -0.4105
  18108  H        137.5730   14.7830  195.5970 H     1703  MOL1703     0.2052
  18109  H        136.7140   13.8060  196.5250 H     1703  MOL1703     0.2052
  18110  O         88.0320  179.8110  293.7730 O.3   1704  MOL1704    -0.4105
  18111  H         87.1490  179.4740  293.5110 H     1704  MOL1704     0.2052
  18112  H         88.6300  179.0330  293.9190 H     1704  MOL1704     0.2052
  18113  O        130.6430  162.0290  132.0630 O.3   1705  MOL1705    -0.4105
  18114  H        131.3780  162.5840  131.7290 H     1705  MOL1705     0.2052
  18115  H        129.9960  162.6180  132.5310 H     1705  MOL1705     0.2052
  18116  O         80.9210  165.2480  274.8520 O.3   1706  MOL1706    -0.4105
  18117  H         81.7620  165.1680  274.3550 H     1706  MOL1706     0.2052
  18118  H         81.1360  165.2930  275.8200 H     1706  MOL1706     0.2052
  18119  O        159.6120  126.6300   86.8620 O.3   1707  MOL1707    -0.4105
  18120  H        158.9830  127.3740   86.7530 H     1707  MOL1707     0.2052
  18121  H        159.1100  125.7810   86.7510 H     1707  MOL1707     0.2052
  18122  O        112.6720  185.5260  297.1080 O.3   1708  MOL1708    -0.4105
  18123  H        112.3690  184.8760  296.4400 H     1708  MOL1708     0.2052
  18124  H        112.3380  186.4220  296.8440 H     1708  MOL1708     0.2052
  18125  O         48.5920    4.9170  126.8710 O.3   1709  MOL1709    -0.4105
  18126  H         48.1810    4.0270  126.8530 H     1709  MOL1709     0.2052
  18127  H         49.3270    4.9330  126.2050 H     1709  MOL1709     0.2052
  18128  O        166.4250   89.1600  103.8920 O.3   1710  MOL1710    -0.4105
  18129  H        165.4970   89.4180  103.7110 H     1710  MOL1710     0.2052
  18130  H        166.9650   89.9880  103.9840 H     1710  MOL1710     0.2052
  18131  O         98.0990   18.1250   54.0000 O.3   1711  MOL1711    -0.4105
  18132  H         98.6650   17.6500   54.6450 H     1711  MOL1711     0.2052
  18133  H         97.1560   17.8660   54.1650 H     1711  MOL1711     0.2052
  18134  O         78.4480   11.5820  239.2600 O.3   1712  MOL1712    -0.4105
  18135  H         78.9670   10.7510  239.2440 H     1712  MOL1712     0.2052
  18136  H         77.8230   11.5430  240.0300 H     1712  MOL1712     0.2052
  18137  O        103.8520    5.7770  244.1310 O.3   1713  MOL1713    -0.4105
  18138  H        103.7510    6.7100  243.8460 H     1713  MOL1713     0.2052
  18139  H        104.7700    5.6600  244.4890 H     1713  MOL1713     0.2052
  18140  O        144.4170   48.7690    3.3080 O.3   1714  MOL1714    -0.4105
  18141  H        143.5740   49.2680    3.3330 H     1714  MOL1714     0.2052
  18142  H        145.1630   49.4160    3.4010 H     1714  MOL1714     0.2052
  18143  O        194.8660  100.2090  224.2600 O.3   1715  MOL1715    -0.4105
  18144  H        195.2710  100.2360  225.1510 H     1715  MOL1715     0.2052
  18145  H        193.9220  100.5060  224.3380 H     1715  MOL1715     0.2052
  18146  O         12.1890  115.3870  230.3130 O.3   1716  MOL1716    -0.4105
  18147  H         12.6460  115.8480  231.0480 H     1716  MOL1716     0.2052
  18148  H         11.8470  116.0720  229.6820 H     1716  MOL1716     0.2052
  18149  O         31.1790   64.8190   18.4480 O.3   1717  MOL1717    -0.4105
  18150  H         31.3200   65.7890   18.4720 H     1717  MOL1717     0.2052
  18151  H         30.2010   64.6480   18.4460 H     1717  MOL1717     0.2052
  18152  O         41.9530   64.5890  235.8640 O.3   1718  MOL1718    -0.4105
  18153  H         41.6340   63.7200  235.5400 H     1718  MOL1718     0.2052
  18154  H         41.6270   65.2900  235.2430 H     1718  MOL1718     0.2052
  18155  O         99.4350   42.7170  109.4280 O.3   1719  MOL1719    -0.4105
  18156  H         99.1480   43.6460  109.5500 H     1719  MOL1719     0.2052
  18157  H        100.2580   42.5730  109.9640 H     1719  MOL1719     0.2052
  18158  O        128.7550   35.1830  243.0480 O.3   1720  MOL1720    -0.4105
  18159  H        129.0460   36.1150  243.1380 H     1720  MOL1720     0.2052
  18160  H        129.5610   34.6040  243.0580 H     1720  MOL1720     0.2052
  18161  O         86.3790   35.5380  295.1670 O.3   1721  MOL1721    -0.4105
  18162  H         87.0860   36.2150  295.2110 H     1721  MOL1721     0.2052
  18163  H         85.5820   35.8910  295.6420 H     1721  MOL1721     0.2052
  18164  O        180.2240  177.4620  141.9200 O.3   1722  MOL1722    -0.4105
  18165  H        179.6660  176.7430  141.5570 H     1722  MOL1722     0.2052
  18166  H        180.9680  177.0500  142.4320 H     1722  MOL1722     0.2052
  18167  O        191.1310  166.0320  164.9310 O.3   1723  MOL1723    -0.4105
  18168  H        190.7970  165.1290  164.7480 H     1723  MOL1723     0.2052
  18169  H        190.3700  166.6650  164.8610 H     1723  MOL1723     0.2052
  18170  O        133.5720  153.2020  185.7040 O.3   1724  MOL1724    -0.4105
  18171  H        132.7730  153.5970  185.2970 H     1724  MOL1724     0.2052
  18172  H        133.4240  152.2250  185.7950 H     1724  MOL1724     0.2052
  18173  O         90.9280   56.2170  235.7400 O.3   1725  MOL1725    -0.4105
  18174  H         91.2930   57.0510  236.1050 H     1725  MOL1725     0.2052
  18175  H         91.1430   55.4820  236.3710 H     1725  MOL1725     0.2052
  18176  O        164.0010  134.9030   48.3650 O.3   1726  MOL1726    -0.4105
  18177  H        163.3840  135.6620   48.4170 H     1726  MOL1726     0.2052
  18178  H        163.9410  134.5150   47.4530 H     1726  MOL1726     0.2052
  18179  O         58.3280   14.3020  252.6150 O.3   1727  MOL1727    -0.4105
  18180  H         57.5330   13.7320  252.5440 H     1727  MOL1727     0.2052
  18181  H         58.0280   15.2460  252.6700 H     1727  MOL1727     0.2052
  18182  O         11.6010  170.8300  132.9360 O.3   1728  MOL1728    -0.4105
  18183  H         11.0150  170.0450  132.9480 H     1728  MOL1728     0.2052
  18184  H         11.0320  171.6420  132.9280 H     1728  MOL1728     0.2052
  18185  O         63.8530   60.2990  204.0550 O.3   1729  MOL1729    -0.4105
  18186  H         64.0100   60.5730  203.1280 H     1729  MOL1729     0.2052
  18187  H         63.8920   59.3080  204.0970 H     1729  MOL1729     0.2052
  18188  O        162.7590  140.1260  233.2020 O.3   1730  MOL1730    -0.4105
  18189  H        162.2110  139.3160  233.2670 H     1730  MOL1730     0.2052
  18190  H        163.4400  140.0990  233.9240 H     1730  MOL1730     0.2052
  18191  O        168.6280   17.2740  119.3540 O.3   1731  MOL1731    -0.4105
  18192  H        169.5800   17.2380  119.1220 H     1731  MOL1731     0.2052
  18193  H        168.5380   17.7410  120.2250 H     1731  MOL1731     0.2052
  18194  O         61.8280  197.2390  166.0460 O.3   1732  MOL1732    -0.4105
  18195  H         62.6010  197.8420  166.0430 H     1732  MOL1732     0.2052
  18196  H         61.0040  197.7910  166.0150 H     1732  MOL1732     0.2052
  18197  O         72.6030  167.2110  133.7600 O.3   1733  MOL1733    -0.4105
  18198  H         71.7390  166.7870  133.5810 H     1733  MOL1733     0.2052
  18199  H         72.4590  168.1900  133.8340 H     1733  MOL1733     0.2052
  18200  O        126.9950  176.2290  125.2170 O.3   1734  MOL1734    -0.4105
  18201  H        126.3000  176.5400  124.6010 H     1734  MOL1734     0.2052
  18202  H        127.0660  176.8810  125.9620 H     1734  MOL1734     0.2052
  18203  O        192.7540  174.4070  242.5220 O.3   1735  MOL1735    -0.4105
  18204  H        192.0030  173.8900  242.8810 H     1735  MOL1735     0.2052
  18205  H        192.3960  175.2470  242.1330 H     1735  MOL1735     0.2052
  18206  O        130.8550   56.5730  236.3760 O.3   1736  MOL1736    -0.4105
  18207  H        131.2730   57.4130  236.6610 H     1736  MOL1736     0.2052
  18208  H        130.6760   56.6300  235.4020 H     1736  MOL1736     0.2052
  18209  O        118.8640  180.0340  267.2960 O.3   1737  MOL1737    -0.4105
  18210  H        119.5920  179.3830  267.2100 H     1737  MOL1737     0.2052
  18211  H        119.2650  180.9350  267.4030 H     1737  MOL1737     0.2052
  18212  O        152.7250   87.5670   54.7010 O.3   1738  MOL1738    -0.4105
  18213  H        152.2200   88.4060   54.7260 H     1738  MOL1738     0.2052
  18214  H        153.6920   87.7870   54.6660 H     1738  MOL1738     0.2052
  18215  O        177.4560  141.1070  155.2740 O.3   1739  MOL1739    -0.4105
  18216  H        177.6230  140.3200  154.7140 H     1739  MOL1739     0.2052
  18217  H        176.5410  141.4380  155.0790 H     1739  MOL1739     0.2052
  18218  O         47.2280  150.2100  211.0270 O.3   1740  MOL1740    -0.4105
  18219  H         46.7620  149.5140  210.5190 H     1740  MOL1740     0.2052
  18220  H         48.0780  149.8290  211.3690 H     1740  MOL1740     0.2052
  18221  O        180.4100   78.0180   21.9250 O.3   1741  MOL1741    -0.4105
  18222  H        181.1870   77.6170   21.4820 H     1741  MOL1741     0.2052
  18223  H        179.7430   77.3020   22.0900 H     1741  MOL1741     0.2052
  18224  O        132.1590  134.6390   22.5470 O.3   1742  MOL1742    -0.4105
  18225  H        132.9860  134.8180   22.0520 H     1742  MOL1742     0.2052
  18226  H        131.4060  135.0520   22.0510 H     1742  MOL1742     0.2052
  18227  O         59.2140   20.2160  285.2930 O.3   1743  MOL1743    -0.4105
  18228  H         58.3190   20.5940  285.1660 H     1743  MOL1743     0.2052
  18229  H         59.1360   19.2270  285.2980 H     1743  MOL1743     0.2052
  18230  O         58.1930  104.9930  268.5840 O.3   1744  MOL1744    -0.4105
  18231  H         57.5470  105.0390  267.8480 H     1744  MOL1744     0.2052
  18232  H         58.6490  105.8720  268.6520 H     1744  MOL1744     0.2052
  18233  O        116.3320  181.8850  197.7580 O.3   1745  MOL1745    -0.4105
  18234  H        116.7380  182.4990  197.1110 H     1745  MOL1745     0.2052
  18235  H        117.0600  181.4580  198.2800 H     1745  MOL1745     0.2052
  18236  O         70.7060   66.2040  238.3410 O.3   1746  MOL1746    -0.4105
  18237  H         71.5660   66.6180  238.1200 H     1746  MOL1746     0.2052
  18238  H         69.9970   66.8910  238.2440 H     1746  MOL1746     0.2052
  18239  O         87.6430   98.8210  253.8220 O.3   1747  MOL1747    -0.4105
  18240  H         88.5160   98.3760  253.8230 H     1747  MOL1747     0.2052
  18241  H         86.9380   98.1230  253.8120 H     1747  MOL1747     0.2052
  18242  O        144.2360   30.2530  203.2860 O.3   1748  MOL1748    -0.4105
  18243  H        144.0380   30.5800  202.3830 H     1748  MOL1748     0.2052
  18244  H        145.0010   29.6240  203.2280 H     1748  MOL1748     0.2052
  18245  O         60.7310   15.1500  176.8380 O.3   1749  MOL1749    -0.4105
  18246  H         61.2610   14.7370  176.1250 H     1749  MOL1749     0.2052
  18247  H         60.3780   16.0140  176.5020 H     1749  MOL1749     0.2052
  18248  O        197.7800   41.6610   46.0180 O.3   1750  MOL1750    -0.4105
  18249  H        198.7180   41.9430   45.9900 H     1750  MOL1750     0.2052
  18250  H        197.7550   40.6700   46.0620 H     1750  MOL1750     0.2052
  18251  O        149.2650   64.7560  192.2520 O.3   1751  MOL1751    -0.4105
  18252  H        150.1480   64.5580  191.8770 H     1751  MOL1751     0.2052
  18253  H        149.2220   65.7280  192.4470 H     1751  MOL1751     0.2052
  18254  O        172.8600   73.7160   58.1760 O.3   1752  MOL1752    -0.4105
  18255  H        172.4360   74.5470   58.4760 H     1752  MOL1752     0.2052
  18256  H        172.1800   72.9930   58.2040 H     1752  MOL1752     0.2052
  18257  O         85.9320  169.8050   51.3020 O.3   1753  MOL1753    -0.4105
  18258  H         85.8120  169.5590   50.3610 H     1753  MOL1753     0.2052
  18259  H         85.9220  170.7950   51.3680 H     1753  MOL1753     0.2052
  18260  O         81.1840   47.8200  255.5630 O.3   1754  MOL1754    -0.4105
  18261  H         81.3330   48.7890  255.5410 H     1754  MOL1754     0.2052
  18262  H         80.2430   47.6570  255.8320 H     1754  MOL1754     0.2052
  18263  O        135.8530  131.2720  247.8560 O.3   1755  MOL1755    -0.4105
  18264  H        136.2710  131.0120  247.0080 H     1755  MOL1755     0.2052
  18265  H        136.5310  131.1840  248.5760 H     1755  MOL1755     0.2052
  18266  O         70.6720   22.1270   72.0740 O.3   1756  MOL1756    -0.4105
  18267  H         70.0980   21.4810   71.6110 H     1756  MOL1756     0.2052
  18268  H         70.1650   22.9740   72.1770 H     1756  MOL1756     0.2052
  18269  O         24.0920  168.4820  296.5500 O.3   1757  MOL1757    -0.4105
  18270  H         24.1650  167.6680  297.0910 H     1757  MOL1757     0.2052
  18271  H         24.0360  169.2590  297.1640 H     1757  MOL1757     0.2052
  18272  O         18.7080  176.9530   76.0930 O.3   1758  MOL1758    -0.4105
  18273  H         18.4400  177.4070   76.9190 H     1758  MOL1758     0.2052
  18274  H         18.3870  177.4920   75.3240 H     1758  MOL1758     0.2052
  18275  O        156.2800   94.1620  289.8270 O.3   1759  MOL1759    -0.4105
  18276  H        156.9390   94.1390  289.1020 H     1759  MOL1759     0.2052
  18277  H        155.7880   95.0220  289.7730 H     1759  MOL1759     0.2052
  18278  O         73.0650   79.4180   55.9990 O.3   1760  MOL1760    -0.4105
  18279  H         73.2200   79.4480   56.9660 H     1760  MOL1760     0.2052
  18280  H         72.4000   78.7060   55.8120 H     1760  MOL1760     0.2052
  18281  O         27.6870   11.3540   11.0530 O.3   1761  MOL1761    -0.4105
  18282  H         28.4780   10.9730   10.6190 H     1761  MOL1761     0.2052
  18283  H         27.4210   10.7540   11.7970 H     1761  MOL1761     0.2052
  18284  O        120.2060  178.2880  270.9550 O.3   1762  MOL1762    -0.4105
  18285  H        119.7550  178.9880  271.4720 H     1762  MOL1762     0.2052
  18286  H        119.5990  178.0030  270.2230 H     1762  MOL1762     0.2052
  18287  O         10.7500   39.9540  276.9570 O.3   1763  MOL1763    -0.4105
  18288  H         11.5740   39.7640  276.4610 H     1763  MOL1763     0.2052
  18289  H         10.1780   40.5380  276.3960 H     1763  MOL1763     0.2052
  18290  O          0.9670   66.6260  127.1920 O.3   1764  MOL1764    -0.4105
  18291  H          1.6410   66.0280  126.8070 H     1764  MOL1764     0.2052
  18292  H          1.4290   67.4320  127.5390 H     1764  MOL1764     0.2052
  18293  O         44.9770   32.6910  182.3920 O.3   1765  MOL1765    -0.4105
  18294  H         44.2620   33.3480  182.5230 H     1765  MOL1765     0.2052
  18295  H         45.8170   33.0700  182.7610 H     1765  MOL1765     0.2052
  18296  O        113.8060  105.7850  169.8730 O.3   1766  MOL1766    -0.4105
  18297  H        114.4280  105.0290  169.9140 H     1766  MOL1766     0.2052
  18298  H        114.3310  106.6240  169.9390 H     1766  MOL1766     0.2052
  18299  O          4.1860    2.6220  290.4610 O.3   1767  MOL1767    -0.4105
  18300  H          4.2170    1.8090  289.9140 H     1767  MOL1767     0.2052
  18301  H          3.8540    3.3650  289.8940 H     1767  MOL1767     0.2052
  18302  O        191.9550   11.2390   69.7220 O.3   1768  MOL1768    -0.4105
  18303  H        192.2830   10.3160   69.7520 H     1768  MOL1768     0.2052
  18304  H        190.9670   11.2150   69.6330 H     1768  MOL1768     0.2052
  18305  O         56.8880   75.8880  247.6100 O.3   1769  MOL1769    -0.4105
  18306  H         56.0020   75.4720  247.5660 H     1769  MOL1769     0.2052
  18307  H         56.7720   76.8710  247.5510 H     1769  MOL1769     0.2052
  18308  O        176.2550   22.1500  210.0870 O.3   1770  MOL1770    -0.4105
  18309  H        176.1310   22.9810  210.5920 H     1770  MOL1770     0.2052
  18310  H        176.6680   22.3760  209.2140 H     1770  MOL1770     0.2052
  18311  O         68.9970   13.4260  268.9800 O.3   1771  MOL1771    -0.4105
  18312  H         68.5220   14.0340  268.3750 H     1771  MOL1771     0.2052
  18313  H         69.3680   13.9620  269.7290 H     1771  MOL1771     0.2052
  18314  O        116.5330   50.9870  246.4550 O.3   1772  MOL1772    -0.4105
  18315  H        116.8670   51.9060  246.5120 H     1772  MOL1772     0.2052
  18316  H        115.5460   51.0200  246.3560 H     1772  MOL1772     0.2052
  18317  O         62.1600  153.6130  159.4240 O.3   1773  MOL1773    -0.4105
  18318  H         61.8750  154.3450  160.0090 H     1773  MOL1773     0.2052
  18319  H         63.0740  153.8150  159.0950 H     1773  MOL1773     0.2052
  18320  O        139.2190   29.2000  253.0970 O.3   1774  MOL1774    -0.4105
  18321  H        138.5990   28.8040  252.4490 H     1774  MOL1774     0.2052
  18322  H        140.1450   29.0080  252.7980 H     1774  MOL1774     0.2052
  18323  O        158.1770   49.1620  144.5750 O.3   1775  MOL1775    -0.4105
  18324  H        157.2750   49.5280  144.4600 H     1775  MOL1775     0.2052
  18325  H        158.8100   49.9210  144.6670 H     1775  MOL1775     0.2052
  18326  O        139.9180    6.7740  124.2410 O.3   1776  MOL1776    -0.4105
  18327  H        139.0760    7.2240  124.0170 H     1776  MOL1776     0.2052
  18328  H        140.6180    7.0970  123.6160 H     1776  MOL1776     0.2052
  18329  O         75.3900   61.0990  296.0830 O.3   1777  MOL1777    -0.4105
  18330  H         75.4730   60.1260  296.0030 H     1777  MOL1777     0.2052
  18331  H         75.5130   61.3440  297.0370 H     1777  MOL1777     0.2052
  18332  O         20.7960  110.8420  170.9270 O.3   1778  MOL1778    -0.4105
  18333  H         20.7660  109.8670  171.0200 H     1778  MOL1778     0.2052
  18334  H         19.9880  111.2200  171.3620 H     1778  MOL1778     0.2052
  18335  O         65.5150  126.0030  211.8580 O.3   1779  MOL1779    -0.4105
  18336  H         64.8060  125.3320  211.7780 H     1779  MOL1779     0.2052
  18337  H         65.1010  126.8590  212.1430 H     1779  MOL1779     0.2052
  18338  O         94.3550  175.8350  154.3230 O.3   1780  MOL1780    -0.4105
  18339  H         94.2920  176.8110  154.2640 H     1780  MOL1780     0.2052
  18340  H         94.5220  175.4790  153.4120 H     1780  MOL1780     0.2052
  18341  O        116.7340  109.7350   39.5080 O.3   1781  MOL1781    -0.4105
  18342  H        117.6590  109.4240   39.6010 H     1781  MOL1781     0.2052
  18343  H        116.1470  108.9400   39.4160 H     1781  MOL1781     0.2052
  18344  O          4.3440   50.2830  213.2520 O.3   1782  MOL1782    -0.4105
  18345  H          4.2860   49.7440  214.0680 H     1782  MOL1782     0.2052
  18346  H          3.5440   50.8700  213.2090 H     1782  MOL1782     0.2052
  18347  O        148.3710   19.5130  180.9540 O.3   1783  MOL1783    -0.4105
  18348  H        148.7830   20.3600  180.6820 H     1783  MOL1783     0.2052
  18349  H        148.8740   19.1600  181.7340 H     1783  MOL1783     0.2052
  18350  O        114.1890   38.3920   84.1010 O.3   1784  MOL1784    -0.4105
  18351  H        113.6800   39.1850   83.8310 H     1784  MOL1784     0.2052
  18352  H        113.5550   37.6340   84.1980 H     1784  MOL1784     0.2052
  18353  O        140.5550   52.3380  279.3770 O.3   1785  MOL1785    -0.4105
  18354  H        139.6830   52.3180  279.8230 H     1785  MOL1785     0.2052
  18355  H        141.2520   52.1170  280.0490 H     1785  MOL1785     0.2052
  18356  O         83.9420   71.4790  234.6110 O.3   1786  MOL1786    -0.4105
  18357  H         84.5090   70.7180  234.3680 H     1786  MOL1786     0.2052
  18358  H         83.9630   72.1330  233.8640 H     1786  MOL1786     0.2052
  18359  O          3.6670    0.7340  116.7190 O.3   1787  MOL1787    -0.4105
  18360  H          3.8430    1.6980  116.7190 H     1787  MOL1787     0.2052
  18361  H          4.5380    0.2590  116.7190 H     1787  MOL1787     0.2052
  18362  O          8.3140  128.0470  121.1460 O.3   1788  MOL1788    -0.4105
  18363  H          7.3930  127.7820  121.3480 H     1788  MOL1788     0.2052
  18364  H          8.8040  127.2450  120.8250 H     1788  MOL1788     0.2052
  18365  O         63.2110  172.7870  215.7560 O.3   1789  MOL1789    -0.4105
  18366  H         64.1700  172.7270  215.9510 H     1789  MOL1789     0.2052
  18367  H         62.7510  172.0500  216.2360 H     1789  MOL1789     0.2052
  18368  O         75.8350  180.5500    5.6030 O.3   1790  MOL1790    -0.4105
  18369  H         75.9700  181.5200    5.6530 H     1790  MOL1790     0.2052
  18370  H         75.1750  180.3660    4.8860 H     1790  MOL1790     0.2052
  18371  O        175.9750  134.4350  297.7000 O.3   1791  MOL1791    -0.4105
  18372  H        176.3890  135.2370  297.3180 H     1791  MOL1791     0.2052
  18373  H        176.6940  133.7880  297.9180 H     1791  MOL1791     0.2052
  18374  O        146.3220   22.7710  142.6680 O.3   1792  MOL1792    -0.4105
  18375  H        145.4000   22.4450  142.7270 H     1792  MOL1792     0.2052
  18376  H        146.9170   21.9930  142.5070 H     1792  MOL1792     0.2052
  18377  O         87.7420   22.3650  207.2020 O.3   1793  MOL1793    -0.4105
  18378  H         87.7960   21.5400  207.7290 H     1793  MOL1793     0.2052
  18379  H         86.9270   22.8580  207.4800 H     1793  MOL1793     0.2052
  18380  O         19.6960   76.3090  179.3870 O.3   1794  MOL1794    -0.4105
  18381  H         20.1410   76.3890  180.2560 H     1794  MOL1794     0.2052
  18382  H         18.9750   76.9890  179.3440 H     1794  MOL1794     0.2052
  18383  O        194.8210   19.4310  114.2430 O.3   1795  MOL1795    -0.4105
  18384  H        195.3610   20.2470  114.2950 H     1795  MOL1795     0.2052
  18385  H        195.4350   18.6590  114.1370 H     1795  MOL1795     0.2052
  18386  O         64.4740   42.9370  298.3280 O.3   1796  MOL1796    -0.4105
  18387  H         65.0220   42.3670  297.7480 H     1796  MOL1796     0.2052
  18388  H         63.8960   42.3510  298.8830 H     1796  MOL1796     0.2052
  18389  O         60.4170  130.4410  253.6700 O.3   1797  MOL1797    -0.4105
  18390  H         61.0960  131.1480  253.6640 H     1797  MOL1797     0.2052
  18391  H         59.5220  130.8700  253.6810 H     1797  MOL1797     0.2052
  18392  O         94.1680   55.1620   75.6830 O.3   1798  MOL1798    -0.4105
  18393  H         93.8700   54.7320   74.8550 H     1798  MOL1798     0.2052
  18394  H         94.7370   54.5180   76.1800 H     1798  MOL1798     0.2052
  18395  O        177.4900   25.6630  206.4940 O.3   1799  MOL1799    -0.4105
  18396  H        177.4810   26.5690  206.1210 H     1799  MOL1799     0.2052
  18397  H        176.6440   25.2130  206.2370 H     1799  MOL1799     0.2052
  18398  O          7.2370   87.0300   54.8220 O.3   1800  MOL1800    -0.4105
  18399  H          6.5600   87.6240   54.4360 H     1800  MOL1800     0.2052
  18400  H          6.9690   86.8180   55.7530 H     1800  MOL1800     0.2052
  18401  O        123.4290    3.2500  228.5140 O.3   1801  MOL1801    -0.4105
  18402  H        122.7950    2.6620  228.0520 H     1801  MOL1801     0.2052
  18403  H        124.3030    2.7840  228.5640 H     1801  MOL1801     0.2052
  18404  O        155.1810  163.5610  120.9850 O.3   1802  MOL1802    -0.4105
  18405  H        154.8550  164.2410  120.3590 H     1802  MOL1802     0.2052
  18406  H        156.1670  163.6500  121.0530 H     1802  MOL1802     0.2052
  18407  O         62.2580   29.0560  173.1160 O.3   1803  MOL1803    -0.4105
  18408  H         63.1420   28.6710  172.9360 H     1803  MOL1803     0.2052
  18409  H         62.0540   28.9270  174.0780 H     1803  MOL1803     0.2052
  18410  O         66.4880   77.0880   17.3240 O.3   1804  MOL1804    -0.4105
  18411  H         66.9490   77.4940   16.5610 H     1804  MOL1804     0.2052
  18412  H         67.1340   77.0130   18.0740 H     1804  MOL1804     0.2052
  18413  O         31.3330    2.0920   69.3070 O.3   1805  MOL1805    -0.4105
  18414  H         30.6990    2.8340   69.4040 H     1805  MOL1805     0.2052
  18415  H         32.2510    2.4550   69.4020 H     1805  MOL1805     0.2052
  18416  O        116.8920  148.2680  198.5000 O.3   1806  MOL1806    -0.4105
  18417  H        116.2370  148.5780  199.1610 H     1806  MOL1806     0.2052
  18418  H        117.7790  148.2160  198.9430 H     1806  MOL1806     0.2052
  18419  O         41.6300   58.2300  201.6730 O.3   1807  MOL1807    -0.4105
  18420  H         42.5850   58.4470  201.7140 H     1807  MOL1807     0.2052
  18421  H         41.4390   57.5390  202.3590 H     1807  MOL1807     0.2052
  18422  O        157.7500   75.3920  272.7640 O.3   1808  MOL1808    -0.4105
  18423  H        156.8320   75.6560  272.9840 H     1808  MOL1808     0.2052
  18424  H        157.8280   74.4110  272.8850 H     1808  MOL1808     0.2052
  18425  O         58.9770   48.7300  214.7160 O.3   1809  MOL1809    -0.4105
  18426  H         59.1470   49.6550  214.9910 H     1809  MOL1809     0.2052
  18427  H         58.0960   48.6990  214.2600 H     1809  MOL1809     0.2052
  18428  O        154.7290   77.9030    4.0840 O.3   1810  MOL1810    -0.4105
  18429  H        155.5180   77.4600    3.7070 H     1810  MOL1810     0.2052
  18430  H        153.9620   77.7430    3.4750 H     1810  MOL1810     0.2052
  18431  O         22.8570  123.6740  199.6870 O.3   1811  MOL1811    -0.4105
  18432  H         22.5290  122.8140  199.3490 H     1811  MOL1811     0.2052
  18433  H         23.4500  124.0720  198.9980 H     1811  MOL1811     0.2052
  18434  O         60.8100  155.5820   74.0200 O.3   1812  MOL1812    -0.4105
  18435  H         60.6640  156.0690   73.1830 H     1812  MOL1812     0.2052
  18436  H         60.3070  154.7270   73.9740 H     1812  MOL1812     0.2052
  18437  O         74.6060   22.5820   22.5750 O.3   1813  MOL1813    -0.4105
  18438  H         75.1990   23.3110   22.2960 H     1813  MOL1813     0.2052
  18439  H         75.1580   21.8800   23.0060 H     1813  MOL1813     0.2052
  18440  O          5.3630   38.6650   30.1380 O.3   1814  MOL1814    -0.4105
  18441  H          5.1510   37.7080   30.1320 H     1814  MOL1814     0.2052
  18442  H          6.3490   38.7650   30.1020 H     1814  MOL1814     0.2052
  18443  O        177.2320  138.1330  141.0340 O.3   1815  MOL1815    -0.4105
  18444  H        176.7040  137.4650  140.5490 H     1815  MOL1815     0.2052
  18445  H        176.6810  138.9530  141.1310 H     1815  MOL1815     0.2052
  18446  O         97.7930    3.2240  281.6580 O.3   1816  MOL1816    -0.4105
  18447  H         97.5100    4.1560  281.7600 H     1816  MOL1816     0.2052
  18448  H         97.4360    2.7050  282.4250 H     1816  MOL1816     0.2052
  18449  O         88.1160   12.5810  102.2260 O.3   1817  MOL1817    -0.4105
  18450  H         87.2850   12.9690  101.8800 H     1817  MOL1817     0.2052
  18451  H         88.3460   11.7940  101.6680 H     1817  MOL1817     0.2052
  18452  O        130.1790  147.9280   71.3160 O.3   1818  MOL1818    -0.4105
  18453  H        131.0300  148.2410   70.9430 H     1818  MOL1818     0.2052
  18454  H        129.4480  148.4680   70.9170 H     1818  MOL1818     0.2052
  18455  O          4.2260  142.6960  102.4850 O.3   1819  MOL1819    -0.4105
  18456  H          3.8020  142.6770  103.3690 H     1819  MOL1819     0.2052
  18457  H          4.0050  143.5620  102.0530 H     1819  MOL1819     0.2052
  18458  O         64.2210   97.3400  264.8210 O.3   1820  MOL1820    -0.4105
  18459  H         63.9080   97.7320  265.6630 H     1820  MOL1820     0.2052
  18460  H         65.1980   97.4970  264.7500 H     1820  MOL1820     0.2052
  18461  O         68.8740  170.7060  168.2140 O.3   1821  MOL1821    -0.4105
  18462  H         68.6190  171.5350  167.7570 H     1821  MOL1821     0.2052
  18463  H         68.2670  170.5800  168.9890 H     1821  MOL1821     0.2052
  18464  O        178.0450   37.0960  179.3490 O.3   1822  MOL1822    -0.4105
  18465  H        177.7420   36.1800  179.1750 H     1822  MOL1822     0.2052
  18466  H        177.5130   37.7120  178.7820 H     1822  MOL1822     0.2052
  18467  O         31.2970  138.7200  107.3940 O.3   1823  MOL1823    -0.4105
  18468  H         30.7290  139.3980  107.8190 H     1823  MOL1823     0.2052
  18469  H         32.1260  138.6290  107.9310 H     1823  MOL1823     0.2052
  18470  O         71.1580  189.7860   99.9170 O.3   1824  MOL1824    -0.4105
  18471  H         72.1380  189.7520   99.9270 H     1824  MOL1824     0.2052
  18472  H         70.8280  189.0520   99.3380 H     1824  MOL1824     0.2052
  18473  O         67.9670   60.9080  266.5780 O.3   1825  MOL1825    -0.4105
  18474  H         68.1410   60.0380  266.1620 H     1825  MOL1825     0.2052
  18475  H         67.6210   60.7510  267.4940 H     1825  MOL1825     0.2052
  18476  O        153.2090  168.2960  253.2520 O.3   1826  MOL1826    -0.4105
  18477  H        152.3170  167.8890  253.2650 H     1826  MOL1826     0.2052
  18478  H        153.8820  167.5670  253.2290 H     1826  MOL1826     0.2052
  18479  O         99.8280   11.6990  128.3440 O.3   1827  MOL1827    -0.4105
  18480  H         99.0720   11.3700  127.8150 H     1827  MOL1827     0.2052
  18481  H         99.4930   11.9460  129.2450 H     1827  MOL1827     0.2052
  18482  O        145.7790   38.2310  179.4100 O.3   1828  MOL1828    -0.4105
  18483  H        145.1660   37.9840  180.1330 H     1828  MOL1828     0.2052
  18484  H        145.7540   37.5140  178.7240 H     1828  MOL1828     0.2052
  18485  O         45.7590   65.3070  219.3520 O.3   1829  MOL1829    -0.4105
  18486  H         45.9830   65.1290  218.4140 H     1829  MOL1829     0.2052
  18487  H         46.6050   65.4190  219.8570 H     1829  MOL1829     0.2052
  18488  O         92.6610   22.6800    6.1690 O.3   1830  MOL1830    -0.4105
  18489  H         93.3290   22.5930    5.4570 H     1830  MOL1830     0.2052
  18490  H         92.5680   23.6420    6.3920 H     1830  MOL1830     0.2052
  18491  O        199.1570  174.9610  224.9070 O.3   1831  MOL1831    -0.4105
  18492  H        199.3150  175.8460  225.2980 H     1831  MOL1831     0.2052
  18493  H        199.9730  174.4130  225.0430 H     1831  MOL1831     0.2052
  18494  O        174.5990  114.0100   64.9490 O.3   1832  MOL1832    -0.4105
  18495  H        174.8730  114.5840   64.2040 H     1832  MOL1832     0.2052
  18496  H        173.7780  114.3960   65.3530 H     1832  MOL1832     0.2052
  18497  O         45.4990   18.5560  162.7680 O.3   1833  MOL1833    -0.4105
  18498  H         46.4070   18.8660  162.9660 H     1833  MOL1833     0.2052
  18499  H         45.5450   17.5930  162.5300 H     1833  MOL1833     0.2052
  18500  O         23.8320  156.2810    0.8340 O.3   1834  MOL1834    -0.4105
  18501  H         24.2660  155.4620    0.5170 H     1834  MOL1834     0.2052
  18502  H         24.4790  157.0290    0.7440 H     1834  MOL1834     0.2052
  18503  O         71.8110   19.7680  135.2130 O.3   1835  MOL1835    -0.4105
  18504  H         71.9670   20.5930  135.7180 H     1835  MOL1835     0.2052
  18505  H         72.6240   19.5710  134.6800 H     1835  MOL1835     0.2052
  18506  O        182.2890   81.0510  126.5170 O.3   1836  MOL1836    -0.4105
  18507  H        181.8430   81.9230  126.5470 H     1836  MOL1836     0.2052
  18508  H        182.4350   80.7450  127.4500 H     1836  MOL1836     0.2052
  18509  O        105.4460  122.9340  238.9940 O.3   1837  MOL1837    -0.4105
  18510  H        105.8980  123.6150  238.4530 H     1837  MOL1837     0.2052
  18511  H        105.4540  122.0800  238.4890 H     1837  MOL1837     0.2052
  18512  O        106.1140  150.6500   51.0970 O.3   1838  MOL1838    -0.4105
  18513  H        105.3720  150.6100   51.7360 H     1838  MOL1838     0.2052
  18514  H        105.8030  151.1390   50.2910 H     1838  MOL1838     0.2052
  18515  O        171.7060  169.1000   61.1570 O.3   1839  MOL1839    -0.4105
  18516  H        171.5400  168.2350   60.7250 H     1839  MOL1839     0.2052
  18517  H        171.4910  169.0120   62.1210 H     1839  MOL1839     0.2052
  18518  O         32.3130  150.1980  117.7730 O.3   1840  MOL1840    -0.4105
  18519  H         32.4580  151.1670  117.7250 H     1840  MOL1840     0.2052
  18520  H         31.3360  150.0330  117.8330 H     1840  MOL1840     0.2052
  18521  O         46.6350   43.3560   33.8650 O.3   1841  MOL1841    -0.4105
  18522  H         47.2790   43.6890   34.5250 H     1841  MOL1841     0.2052
  18523  H         45.9990   42.7520   34.3300 H     1841  MOL1841     0.2052
  18524  O        193.6970   15.0140  232.2340 O.3   1842  MOL1842    -0.4105
  18525  H        193.4810   15.6370  232.9580 H     1842  MOL1842     0.2052
  18526  H        193.1160   15.2260  231.4580 H     1842  MOL1842     0.2052
  18527  O         71.0090   61.9330  265.0930 O.3   1843  MOL1843    -0.4105
  18528  H         71.3520   62.8020  265.3900 H     1843  MOL1843     0.2052
  18529  H         71.2800   61.7990  264.1480 H     1843  MOL1843     0.2052
  18530  O        197.0140   41.6260  206.0190 O.3   1844  MOL1844    -0.4105
  18531  H        196.8410   40.7050  205.7340 H     1844  MOL1844     0.2052
  18532  H        197.6090   42.0520  205.3480 H     1844  MOL1844     0.2052
  18533  O         75.5160   66.1730  282.4030 O.3   1845  MOL1845    -0.4105
  18534  H         75.6400   67.0880  282.0760 H     1845  MOL1845     0.2052
  18535  H         76.2880   65.9440  282.9840 H     1845  MOL1845     0.2052
  18536  O         65.9490   69.0790  221.1210 O.3   1846  MOL1846    -0.4105
  18537  H         66.8820   69.2810  221.3460 H     1846  MOL1846     0.2052
  18538  H         65.4490   69.9340  221.0760 H     1846  MOL1846     0.2052
  18539  O         84.7650   39.8660  218.1650 O.3   1847  MOL1847    -0.4105
  18540  H         83.9090   40.0540  218.6030 H     1847  MOL1847     0.2052
  18541  H         85.4750   39.8690  218.8580 H     1847  MOL1847     0.2052
  18542  O        120.4690   28.6120  162.6120 O.3   1848  MOL1848    -0.4105
  18543  H        119.8510   29.3570  162.7660 H     1848  MOL1848     0.2052
  18544  H        121.3960   28.9630  162.6620 H     1848  MOL1848     0.2052
  18545  O         63.4810    2.0420  123.6140 O.3   1849  MOL1849    -0.4105
  18546  H         62.6420    2.5480  123.6470 H     1849  MOL1849     0.2052
  18547  H         63.2650    1.0970  123.4000 H     1849  MOL1849     0.2052
  18548  O         45.7100   37.1610  120.0380 O.3   1850  MOL1850    -0.4105
  18549  H         46.6670   36.9610  119.9650 H     1850  MOL1850     0.2052
  18550  H         45.2720   36.4110  120.5200 H     1850  MOL1850     0.2052
  18551  O        143.3580   30.2420  127.2600 O.3   1851  MOL1851    -0.4105
  18552  H        142.5590   29.8970  127.7100 H     1851  MOL1851     0.2052
  18553  H        143.9950   29.4910  127.1390 H     1851  MOL1851     0.2052
  18554  O         40.2670   20.8020  268.1500 O.3   1852  MOL1852    -0.4105
  18555  H         39.9240   21.1410  267.2970 H     1852  MOL1852     0.2052
  18556  H         40.1070   21.4930  268.8450 H     1852  MOL1852     0.2052
  18557  O         85.9410  134.5570   16.9710 O.3   1853  MOL1853    -0.4105
  18558  H         86.6450  135.1750   16.6830 H     1853  MOL1853     0.2052
  18559  H         86.3500  133.6640   17.1100 H     1853  MOL1853     0.2052
  18560  O        195.8990   56.0470  205.4480 O.3   1854  MOL1854    -0.4105
  18561  H        196.8500   56.0020  205.2170 H     1854  MOL1854     0.2052
  18562  H        195.5730   56.9620  205.2430 H     1854  MOL1854     0.2052
  18563  O        166.2110  166.8280    7.5590 O.3   1855  MOL1855    -0.4105
  18564  H        165.2860  166.6930    7.2640 H     1855  MOL1855     0.2052
  18565  H        166.3710  167.8040    7.6410 H     1855  MOL1855     0.2052
  18566  O        147.0850   28.7040  185.3530 O.3   1856  MOL1856    -0.4105
  18567  H        146.2650   28.8110  185.8780 H     1856  MOL1856     0.2052
  18568  H        147.4340   29.6070  185.1350 H     1856  MOL1856     0.2052
  18569  O        178.2190   72.4110   43.8760 O.3   1857  MOL1857    -0.4105
  18570  H        177.3080   72.6100   44.1770 H     1857  MOL1857     0.2052
  18571  H        178.2870   71.4330   43.7190 H     1857  MOL1857     0.2052
  18572  O         56.1990   25.0760  154.7200 O.3   1858  MOL1858    -0.4105
  18573  H         56.9170   25.4570  154.1730 H     1858  MOL1858     0.2052
  18574  H         56.4210   24.1260  154.9050 H     1858  MOL1858     0.2052
  18575  O        197.5510  195.1740   79.5800 O.3   1859  MOL1859    -0.4105
  18576  H        196.5920  195.1040   79.7710 H     1859  MOL1859     0.2052
  18577  H        197.7360  196.0920   79.2500 H     1859  MOL1859     0.2052
  18578  O        156.6410   60.6570  287.7960 O.3   1860  MOL1860    -0.4105
  18579  H        157.3930   61.2820  287.8490 H     1860  MOL1860     0.2052
  18580  H        157.0060   59.7370  287.7170 H     1860  MOL1860     0.2052
  18581  O         43.4460   84.6030  133.5910 O.3   1861  MOL1861    -0.4105
  18582  H         42.8110   85.0770  133.0150 H     1861  MOL1861     0.2052
  18583  H         44.1120   85.2590  133.9240 H     1861  MOL1861     0.2052
  18584  O         45.8650   23.1960   46.9500 O.3   1862  MOL1862    -0.4105
  18585  H         45.0080   22.7290   47.0490 H     1862  MOL1862     0.2052
  18586  H         46.5510   22.5310   46.6820 H     1862  MOL1862     0.2052
  18587  O         32.5600  116.0070   97.8750 O.3   1863  MOL1863    -0.4105
  18588  H         31.7510  115.8710   98.4110 H     1863  MOL1863     0.2052
  18589  H         32.3950  115.6430   96.9670 H     1863  MOL1863     0.2052
  18590  O         85.1880   83.3370   23.5260 O.3   1864  MOL1864    -0.4105
  18591  H         85.2210   84.3050   23.6700 H     1864  MOL1864     0.2052
  18592  H         84.2890   83.0130   23.7960 H     1864  MOL1864     0.2052
  18593  O        166.3380   66.2490  287.6290 O.3   1865  MOL1865    -0.4105
  18594  H        167.1550   65.7750  287.3680 H     1865  MOL1865     0.2052
  18595  H        166.6000   67.0650  288.1300 H     1865  MOL1865     0.2052
  18596  O        191.9050  123.1500   82.1470 O.3   1866  MOL1866    -0.4105
  18597  H        191.9030  122.5130   81.4020 H     1866  MOL1866     0.2052
  18598  H        192.6110  123.8260   81.9760 H     1866  MOL1866     0.2052
  18599  O        118.1810   86.5560   21.0670 O.3   1867  MOL1867    -0.4105
  18600  H        118.7940   86.1600   21.7200 H     1867  MOL1867     0.2052
  18601  H        118.4460   87.5020   20.9270 H     1867  MOL1867     0.2052
  18602  O         38.7970   38.8940  287.4790 O.3   1868  MOL1868    -0.4105
  18603  H         38.8330   39.6890  286.9060 H     1868  MOL1868     0.2052
  18604  H         39.5350   38.2870  287.2140 H     1868  MOL1868     0.2052
  18605  O         89.2920   16.5600  288.5430 O.3   1869  MOL1869    -0.4105
  18606  H         89.2360   16.4920  287.5670 H     1869  MOL1869     0.2052
  18607  H         90.2510   16.5870  288.7980 H     1869  MOL1869     0.2052
  18608  O        159.0770   78.6750  226.2650 O.3   1870  MOL1870    -0.4105
  18609  H        159.7050   78.0000  225.9310 H     1870  MOL1870     0.2052
  18610  H        159.3290   79.5530  225.8750 H     1870  MOL1870     0.2052
  18611  O        142.7480  102.1860   63.6550 O.3   1871  MOL1871    -0.4105
  18612  H        142.2820  102.4150   64.4860 H     1871  MOL1871     0.2052
  18613  H        143.1470  101.2830   63.7610 H     1871  MOL1871     0.2052
  18614  O         79.2720  176.7260  251.9190 O.3   1872  MOL1872    -0.4105
  18615  H         80.0160  177.3480  252.0620 H     1872  MOL1872     0.2052
  18616  H         79.5140  175.8540  252.3260 H     1872  MOL1872     0.2052
  18617  O         15.5950   43.0220  289.2650 O.3   1873  MOL1873    -0.4105
  18618  H         15.2550   43.9400  289.3190 H     1873  MOL1873     0.2052
  18619  H         16.5540   43.0610  289.0120 H     1873  MOL1873     0.2052
  18620  O         40.2080    5.5400   86.3070 O.3   1874  MOL1874    -0.4105
  18621  H         39.9620    4.7840   86.8810 H     1874  MOL1874     0.2052
  18622  H         40.6970    5.1860   85.5200 H     1874  MOL1874     0.2052
  18623  O         29.5000   52.4030  134.6290 O.3   1875  MOL1875    -0.4105
  18624  H         29.0810   53.2150  134.2760 H     1875  MOL1875     0.2052
  18625  H         30.4800   52.5520  134.6720 H     1875  MOL1875     0.2052
  18626  O          3.2950  115.0060   34.0240 O.3   1876  MOL1876    -0.4105
  18627  H          2.5100  114.9300   34.6070 H     1876  MOL1876     0.2052
  18628  H          3.1390  114.4440   33.2210 H     1876  MOL1876     0.2052
  18629  O         23.9020  106.7260  261.9180 O.3   1877  MOL1877    -0.4105
  18630  H         23.5440  106.8870  262.8160 H     1877  MOL1877     0.2052
  18631  H         24.5810  106.0050  261.9790 H     1877  MOL1877     0.2052
  18632  O         15.6560   61.1250   59.8960 O.3   1878  MOL1878    -0.4105
  18633  H         16.4380   60.5550   59.7380 H     1878  MOL1878     0.2052
  18634  H         14.9280   60.8270   59.2920 H     1878  MOL1878     0.2052
  18635  O          9.6690   51.5020    9.6460 O.3   1879  MOL1879    -0.4105
  18636  H          9.5360   50.5310    9.6440 H     1879  MOL1879     0.2052
  18637  H         10.6450   51.6820    9.6720 H     1879  MOL1879     0.2052
  18638  O         53.0020   66.1000  187.0380 O.3   1880  MOL1880    -0.4105
  18639  H         52.1050   66.4870  187.1210 H     1880  MOL1880     0.2052
  18640  H         53.6570   66.8440  186.9900 H     1880  MOL1880     0.2052
  18641  O        186.6310   77.3840   23.2120 O.3   1881  MOL1881    -0.4105
  18642  H        187.4920   77.6280   23.6110 H     1881  MOL1881     0.2052
  18643  H        186.2970   76.5700   23.6700 H     1881  MOL1881     0.2052
  18644  O          7.2350   90.6950  162.8650 O.3   1882  MOL1882    -0.4105
  18645  H          6.3130   90.4450  163.0800 H     1882  MOL1882     0.2052
  18646  H          7.7590   89.8630  162.7310 H     1882  MOL1882     0.2052
  18647  O        132.5580    4.1020  176.5780 O.3   1883  MOL1883    -0.4105
  18648  H        133.5180    4.2590  176.4560 H     1883  MOL1883     0.2052
  18649  H        132.2700    4.5690  177.4040 H     1883  MOL1883     0.2052
  18650  O        105.5410  186.3380   13.8600 O.3   1884  MOL1884    -0.4105
  18651  H        105.4800  185.5790   14.4760 H     1884  MOL1884     0.2052
  18652  H        105.3740  186.0050   12.9400 H     1884  MOL1884     0.2052
  18653  O        103.3540  173.6880   47.7040 O.3   1885  MOL1885    -0.4105
  18654  H        104.2390  173.4830   48.0720 H     1885  MOL1885     0.2052
  18655  H        102.6930  173.0850   48.1320 H     1885  MOL1885     0.2052
  18656  O        104.8850  185.4090  166.6410 O.3   1886  MOL1886    -0.4105
  18657  H        103.9230  185.2570  166.5300 H     1886  MOL1886     0.2052
  18658  H        105.3110  184.5450  166.8790 H     1886  MOL1886     0.2052
  18659  O         65.2840   88.2360  176.9960 O.3   1887  MOL1887    -0.4105
  18660  H         64.6340   88.5610  177.6530 H     1887  MOL1887     0.2052
  18661  H         65.9420   88.9590  176.8260 H     1887  MOL1887     0.2052
  18662  O        156.0750  193.9340   51.8970 O.3   1888  MOL1888    -0.4105
  18663  H        155.5620  194.7680   51.9300 H     1888  MOL1888     0.2052
  18664  H        157.0410  194.1630   51.9120 H     1888  MOL1888     0.2052
  18665  O         86.9190   37.0610   36.4410 O.3   1889  MOL1889    -0.4105
  18666  H         87.4360   36.8190   37.2380 H     1889  MOL1889     0.2052
  18667  H         87.5560   37.3030   35.7200 H     1889  MOL1889     0.2052
  18668  O         45.7790   35.2050   36.0470 O.3   1890  MOL1890    -0.4105
  18669  H         44.9620   34.8090   35.6780 H     1890  MOL1890     0.2052
  18670  H         46.5500   34.6510   35.7590 H     1890  MOL1890     0.2052
  18671  O        179.0100  153.5780  150.9650 O.3   1891  MOL1891    -0.4105
  18672  H        179.3440  153.7850  150.0670 H     1891  MOL1891     0.2052
  18673  H        178.0200  153.5280  150.9240 H     1891  MOL1891     0.2052
  18674  O         34.4300  116.9420  255.7540 O.3   1892  MOL1892    -0.4105
  18675  H         34.7380  116.0120  255.7520 H     1892  MOL1892     0.2052
  18676  H         35.2260  117.5330  255.7260 H     1892  MOL1892     0.2052
  18677  O         26.5160   49.5230   94.2870 O.3   1893  MOL1893    -0.4105
  18678  H         27.1580   48.8460   93.9880 H     1893  MOL1893     0.2052
  18679  H         25.9580   49.1250   95.0050 H     1893  MOL1893     0.2052
  18680  O        194.7730  112.6320  128.9240 O.3   1894  MOL1894    -0.4105
  18681  H        195.6150  113.0620  128.6630 H     1894  MOL1894     0.2052
  18682  H        194.0490  112.9940  128.3500 H     1894  MOL1894     0.2052
  18683  O        151.1340   11.3580  288.4820 O.3   1895  MOL1895    -0.4105
  18684  H        151.8670   10.9420  288.9820 H     1895  MOL1895     0.2052
  18685  H        151.1680   11.0260  287.5480 H     1895  MOL1895     0.2052
  18686  O         72.5170   84.3390  161.5230 O.3   1896  MOL1896    -0.4105
  18687  H         71.9940   85.1660  161.5810 H     1896  MOL1896     0.2052
  18688  H         73.2120   84.4580  160.8250 H     1896  MOL1896     0.2052
  18689  O         58.7360  120.9420  173.1040 O.3   1897  MOL1897    -0.4105
  18690  H         58.5760  119.9770  173.1650 H     1897  MOL1897     0.2052
  18691  H         59.6530  121.0830  172.7530 H     1897  MOL1897     0.2052
  18692  O         50.8660   31.4450  177.2860 O.3   1898  MOL1898    -0.4105
  18693  H         51.7410   31.3900  177.7240 H     1898  MOL1898     0.2052
  18694  H         50.4090   32.2640  177.6090 H     1898  MOL1898     0.2052
  18695  O         41.1260   99.1420   99.7660 O.3   1899  MOL1899    -0.4105
  18696  H         41.9340   99.5970  100.0850 H     1899  MOL1899     0.2052
  18697  H         40.7700   99.6490   98.9920 H     1899  MOL1899     0.2052
  18698  O          6.5860   44.2990  208.9640 O.3   1900  MOL1900    -0.4105
  18699  H          5.7660   44.0830  209.4560 H     1900  MOL1900     0.2052
  18700  H          6.4560   45.1720  208.5110 H     1900  MOL1900     0.2052
  18701  O         30.9720  197.0210  117.2560 O.3   1901  MOL1901    -0.4105
  18702  H         30.2390  197.6700  117.3060 H     1901  MOL1901     0.2052
  18703  H         30.5800  196.1190  117.1250 H     1901  MOL1901     0.2052
  18704  O         65.7230  160.2200    7.7190 O.3   1902  MOL1902    -0.4105
  18705  H         64.9610  160.7700    7.9980 H     1902  MOL1902     0.2052
  18706  H         65.3710  159.3970    7.2900 H     1902  MOL1902     0.2052
  18707  O        136.2740  116.2990   15.2800 O.3   1903  MOL1903    -0.4105
  18708  H        136.5370  115.3930   15.5440 H     1903  MOL1903     0.2052
  18709  H        135.3100  116.2880   15.0460 H     1903  MOL1903     0.2052
  18710  O        158.4990  175.0550  288.4090 O.3   1904  MOL1904    -0.4105
  18711  H        158.8340  174.1830  288.1120 H     1904  MOL1904     0.2052
  18712  H        157.5630  174.9390  288.7180 H     1904  MOL1904     0.2052
  18713  O        114.9930  197.8300  264.3970 O.3   1905  MOL1905    -0.4105
  18714  H        114.1070  198.2490  264.4120 H     1905  MOL1905     0.2052
  18715  H        114.8720  196.8540  264.2640 H     1905  MOL1905     0.2052
  18716  O         17.2830   19.2900   11.9570 O.3   1906  MOL1906    -0.4105
  18717  H         16.6970   18.5130   12.0730 H     1906  MOL1906     0.2052
  18718  H         18.1210   19.1240   12.4610 H     1906  MOL1906     0.2052
  18719  O         54.4070   45.6920   93.1460 O.3   1907  MOL1907    -0.4105
  18720  H         53.9370   44.9990   92.6360 H     1907  MOL1907     0.2052
  18721  H         55.1280   46.0630   92.5740 H     1907  MOL1907     0.2052
  18722  O         27.7020    1.9440   25.9410 O.3   1908  MOL1908    -0.4105
  18723  H         28.5760    1.6350   25.6230 H     1908  MOL1908     0.2052
  18724  H         27.0010    1.5310   25.3730 H     1908  MOL1908     0.2052
  18725  O        138.4580    5.7390  172.9340 O.3   1909  MOL1909    -0.4105
  18726  H        138.0870    6.2040  173.7130 H     1909  MOL1909     0.2052
  18727  H        139.2550    5.2270  173.2300 H     1909  MOL1909     0.2052
  18728  O        163.1820  132.2020  170.7750 O.3   1910  MOL1910    -0.4105
  18729  H        162.2120  132.1580  170.9040 H     1910  MOL1910     0.2052
  18730  H        163.3870  133.0060  170.2310 H     1910  MOL1910     0.2052
  18731  O         42.1390   47.1810  234.0420 O.3   1911  MOL1911    -0.4105
  18732  H         42.9320   46.6060  234.0030 H     1911  MOL1911     0.2052
  18733  H         42.3080   47.9800  233.4780 H     1911  MOL1911     0.2052
  18734  O         12.6980   90.8500  260.7950 O.3   1912  MOL1912    -0.4105
  18735  H         13.0470   91.3600  260.0340 H     1912  MOL1912     0.2052
  18736  H         12.6370   89.8960  260.5270 H     1912  MOL1912     0.2052
  18737  O         59.5880  158.6020  262.5110 O.3   1913  MOL1913    -0.4105
  18738  H         59.2100  158.3640  263.3830 H     1913  MOL1913     0.2052
  18739  H         60.5780  158.5870  262.5870 H     1913  MOL1913     0.2052
  18740  O         70.3860   32.2430   86.1630 O.3   1914  MOL1914    -0.4105
  18741  H         71.1010   31.5730   86.1570 H     1914  MOL1914     0.2052
  18742  H         70.6990   33.0270   86.6840 H     1914  MOL1914     0.2052
  18743  O        106.9190   30.2880  293.8230 O.3   1915  MOL1915    -0.4105
  18744  H        107.7060   29.7380  293.6230 H     1915  MOL1915     0.2052
  18745  H        107.0820   30.7610  294.6800 H     1915  MOL1915     0.2052
  18746  O         16.1090    2.5240  104.2490 O.3   1916  MOL1916    -0.4105
  18747  H         16.2800    2.0650  103.4000 H     1916  MOL1916     0.2052
  18748  H         16.5460    3.4140  104.2150 H     1916  MOL1916     0.2052
  18749  O        112.3350   79.2610  272.9210 O.3   1917  MOL1917    -0.4105
  18750  H        112.2470   78.5250  272.2800 H     1917  MOL1917     0.2052
  18751  H        112.7790   78.9110  273.7370 H     1917  MOL1917     0.2052
  18752  O         92.3430   95.2730   38.0370 O.3   1918  MOL1918    -0.4105
  18753  H         91.5310   95.8140   37.9510 H     1918  MOL1918     0.2052
  18754  H         92.0870   94.3830   38.3910 H     1918  MOL1918     0.2052
  18755  O         83.7610   93.7420   43.1800 O.3   1919  MOL1919    -0.4105
  18756  H         82.8550   93.9360   43.4990 H     1919  MOL1919     0.2052
  18757  H         83.8820   92.7570   43.1670 H     1919  MOL1919     0.2052
  18758  O         18.8470  102.2410  197.5180 O.3   1920  MOL1920    -0.4105
  18759  H         18.7190  101.2760  197.6360 H     1920  MOL1920     0.2052
  18760  H         18.9640  102.6500  198.4150 H     1920  MOL1920     0.2052
  18761  O        105.5990   49.2220  225.1140 O.3   1921  MOL1921    -0.4105
  18762  H        106.4360   49.2110  224.6050 H     1921  MOL1921     0.2052
  18763  H        104.8540   49.3920  224.4820 H     1921  MOL1921     0.2052
  18764  O        111.1970   63.7150   29.7720 O.3   1922  MOL1922    -0.4105
  18765  H        111.4580   64.4350   30.3830 H     1922  MOL1922     0.2052
  18766  H        110.6830   64.1140   29.0230 H     1922  MOL1922     0.2052
  18767  O        101.2360   25.6490   11.3850 O.3   1923  MOL1923    -0.4105
  18768  H        100.4920   25.6260   12.0220 H     1923  MOL1923     0.2052
  18769  H        101.3720   24.7310   11.0340 H     1923  MOL1923     0.2052
  18770  O        118.5340  195.9220  169.9160 O.3   1924  MOL1924    -0.4105
  18771  H        118.6080  196.5110  169.1360 H     1924  MOL1924     0.2052
  18772  H        118.7440  196.4530  170.7270 H     1924  MOL1924     0.2052
  18773  O        106.9520  190.1640   78.6280 O.3   1925  MOL1925    -0.4105
  18774  H        107.5520  190.1140   77.8550 H     1925  MOL1925     0.2052
  18775  H        106.0190  190.0740   78.3020 H     1925  MOL1925     0.2052
  18776  O         21.7230  116.8350  177.1670 O.3   1926  MOL1926    -0.4105
  18777  H         22.3200  116.1300  176.8380 H     1926  MOL1926     0.2052
  18778  H         22.0360  117.7020  176.8000 H     1926  MOL1926     0.2052
  18779  O         73.9770  151.6140   15.1480 O.3   1927  MOL1927    -0.4105
  18780  H         74.0060  152.5800   14.9870 H     1927  MOL1927     0.2052
  18781  H         73.3480  151.4420   15.8950 H     1927  MOL1927     0.2052
  18782  O         89.5820  130.7700  218.2570 O.3   1928  MOL1928    -0.4105
  18783  H         90.4670  131.1880  218.2150 H     1928  MOL1928     0.2052
  18784  H         89.6880  129.8000  218.0770 H     1928  MOL1928     0.2052
  18785  O        143.5910  155.0940  265.5280 O.3   1929  MOL1929    -0.4105
  18786  H        142.9950  154.3500  265.2980 H     1929  MOL1929     0.2052
  18787  H        144.3810  154.7240  266.0000 H     1929  MOL1929     0.2052
  18788  O         86.4520   12.2120   70.0700 O.3   1930  MOL1930    -0.4105
  18789  H         85.8510   11.4760   70.3120 H     1930  MOL1930     0.2052
  18790  H         87.0370   11.9040   69.3300 H     1930  MOL1930     0.2052
  18791  O         16.1690   49.6440  156.2220 O.3   1931  MOL1931    -0.4105
  18792  H         16.5570   49.5320  155.3300 H     1931  MOL1931     0.2052
  18793  H         16.3450   48.8190  156.7440 H     1931  MOL1931     0.2052
  18794  O        144.3150   37.8200  220.8800 O.3   1932  MOL1932    -0.4105
  18795  H        143.9500   38.5180  221.4620 H     1932  MOL1932     0.2052
  18796  H        145.2850   37.7300  221.0730 H     1932  MOL1932     0.2052
  18797  O        124.9270  152.8510   44.8340 O.3   1933  MOL1933    -0.4105
  18798  H        125.7340  153.4070   44.8280 H     1933  MOL1933     0.2052
  18799  H        124.4200  153.0310   44.0010 H     1933  MOL1933     0.2052
  18800  O        111.6750   13.6120  127.6960 O.3   1934  MOL1934    -0.4105
  18801  H        112.2000   14.4300  127.8170 H     1934  MOL1934     0.2052
  18802  H        112.2960   12.8770  127.4520 H     1934  MOL1934     0.2052
  18803  O         78.5170   32.9580  195.1400 O.3   1935  MOL1935    -0.4105
  18804  H         79.2940   32.4600  195.4700 H     1935  MOL1935     0.2052
  18805  H         77.7000   32.5610  195.5400 H     1935  MOL1935     0.2052
  18806  O        105.0440  170.7620   85.9200 O.3   1936  MOL1936    -0.4105
  18807  H        105.4460  169.8690   85.9300 H     1936  MOL1936     0.2052
  18808  H        104.6950  170.9550   86.8290 H     1936  MOL1936     0.2052
  18809  O         52.4190  179.4930  284.8980 O.3   1937  MOL1937    -0.4105
  18810  H         51.6040  178.9770  284.7250 H     1937  MOL1937     0.2052
  18811  H         52.2090  180.4550  284.7770 H     1937  MOL1937     0.2052
  18812  O         35.7000  164.8190   73.4550 O.3   1938  MOL1938    -0.4105
  18813  H         35.5490  165.6940   73.8700 H     1938  MOL1938     0.2052
  18814  H         34.9400  164.6290   72.8460 H     1938  MOL1938     0.2052
  18815  O        104.4630    1.4290  100.0710 O.3   1939  MOL1939    -0.4105
  18816  H        103.9610    1.6610   99.2620 H     1939  MOL1939     0.2052
  18817  H        104.4050    2.1920  100.7030 H     1939  MOL1939     0.2052
  18818  O        111.0000   59.6550    3.2050 O.3   1940  MOL1940    -0.4105
  18819  H        111.9050   59.8120    2.8630 H     1940  MOL1940     0.2052
  18820  H        111.0650   59.4510    4.1740 H     1940  MOL1940     0.2052
  18821  O        145.5830  192.6280  251.3030 O.3   1941  MOL1941    -0.4105
  18822  H        145.3230  191.6830  251.3100 H     1941  MOL1941     0.2052
  18823  H        146.5150  192.6910  250.9700 H     1941  MOL1941     0.2052
  18824  O         52.3940   68.4610   42.0540 O.3   1942  MOL1942    -0.4105
  18825  H         51.6690   67.8890   42.3830 H     1942  MOL1942     0.2052
  18826  H         53.2310   67.9300   42.0500 H     1942  MOL1942     0.2052
  18827  O         26.2450   84.4250   23.6560 O.3   1943  MOL1943    -0.4105
  18828  H         25.8070   83.5500   23.7040 H     1943  MOL1943     0.2052
  18829  H         25.7560   84.9810   22.9950 H     1943  MOL1943     0.2052
  18830  O         46.7260   70.2420   67.0380 O.3   1944  MOL1944    -0.4105
  18831  H         47.4010   69.6040   67.3500 H     1944  MOL1944     0.2052
  18832  H         47.0480   71.1580   67.2410 H     1944  MOL1944     0.2052
  18833  O         24.7150  162.7670  171.5170 O.3   1945  MOL1945    -0.4105
  18834  H         25.6890  162.6800  171.4510 H     1945  MOL1945     0.2052
  18835  H         24.4940  163.7300  171.6010 H     1945  MOL1945     0.2052
  18836  O        113.4810  106.3340  223.4400 O.3   1946  MOL1946    -0.4105
  18837  H        114.2920  106.8820  223.4950 H     1946  MOL1946     0.2052
  18838  H        112.6960  106.9410  223.4400 H     1946  MOL1946     0.2052
  18839  O         17.3280   51.4170  197.9480 O.3   1947  MOL1947    -0.4105
  18840  H         18.2600   51.1120  197.9620 H     1947  MOL1947     0.2052
  18841  H         17.3260   52.4020  197.8340 H     1947  MOL1947     0.2052
  18842  O         19.7820   17.3780  231.3400 O.3   1948  MOL1948    -0.4105
  18843  H         19.8200   18.2450  230.8850 H     1948  MOL1948     0.2052
  18844  H         20.5310   16.8190  231.0080 H     1948  MOL1948     0.2052
  18845  O        161.0020  148.3480   15.1440 O.3   1949  MOL1949    -0.4105
  18846  H        161.2080  149.2580   14.8420 H     1949  MOL1949     0.2052
  18847  H        160.7190  147.8160   14.3550 H     1949  MOL1949     0.2052
  18848  O         71.4610  182.9260  172.4710 O.3   1950  MOL1950    -0.4105
  18849  H         72.4080  182.7390  172.6410 H     1950  MOL1950     0.2052
  18850  H         71.2780  182.7550  171.5110 H     1950  MOL1950     0.2052
  18851  O         77.3790   67.2890   65.2250 O.3   1951  MOL1951    -0.4105
  18852  H         78.0470   66.5840   65.0960 H     1951  MOL1951     0.2052
  18853  H         77.8480   68.1120   65.5200 H     1951  MOL1951     0.2052
  18854  O        128.8110   29.8210    1.6200 O.3   1952  MOL1952    -0.4105
  18855  H        129.4700   29.1430    1.3600 H     1952  MOL1952     0.2052
  18856  H        128.7330   30.4780    0.8790 H     1952  MOL1952     0.2052
  18857  O         40.3850  174.1770   57.5800 O.3   1953  MOL1953    -0.4105
  18858  H         40.0860  174.3310   58.5000 H     1953  MOL1953     0.2052
  18859  H         41.3710  174.0620   57.5880 H     1953  MOL1953     0.2052
  18860  O         73.0750  153.8260  281.7780 O.3   1954  MOL1954    -0.4105
  18861  H         72.5020  154.5790  282.0310 H     1954  MOL1954     0.2052
  18862  H         73.8310  154.1780  281.2400 H     1954  MOL1954     0.2052
  18863  O         16.9130   78.0800  166.5810 O.3   1955  MOL1955    -0.4105
  18864  H         17.4400   77.3470  166.2020 H     1955  MOL1955     0.2052
  18865  H         16.3100   78.4280  165.8730 H     1955  MOL1955     0.2052
  18866  O        124.5690  156.5780  144.8710 O.3   1956  MOL1956    -0.4105
  18867  H        125.4450  156.2100  144.6340 H     1956  MOL1956     0.2052
  18868  H        123.8840  155.8780  144.7100 H     1956  MOL1956     0.2052
  18869  O         65.4280   79.8540  203.1020 O.3   1957  MOL1957    -0.4105
  18870  H         66.3290   79.4740  203.1760 H     1957  MOL1957     0.2052
  18871  H         64.7720   79.1120  203.1680 H     1957  MOL1957     0.2052
  18872  O         37.8520  186.7290  119.7150 O.3   1958  MOL1958    -0.4105
  18873  H         38.3230  187.3700  120.2880 H     1958  MOL1958     0.2052
  18874  H         36.8780  186.8170  119.8860 H     1958  MOL1958     0.2052
  18875  O         21.1090   80.5680  248.9220 O.3   1959  MOL1959    -0.4105
  18876  H         20.6880   81.3620  249.3130 H     1959  MOL1959     0.2052
  18877  H         22.0750   80.5840  249.1500 H     1959  MOL1959     0.2052
  18878  O        151.5580   25.6000   37.7100 O.3   1960  MOL1960    -0.4105
  18879  H        150.8850   26.2610   37.9740 H     1960  MOL1960     0.2052
  18880  H        152.2460   26.0580   37.1620 H     1960  MOL1960     0.2052
  18881  O        134.1710   32.9610   38.8930 O.3   1961  MOL1961    -0.4105
  18882  H        134.9100   33.2140   39.4850 H     1961  MOL1961     0.2052
  18883  H        134.4820   33.0450   37.9550 H     1961  MOL1961     0.2052
  18884  O        148.3160   74.0790  188.6130 O.3   1962  MOL1962    -0.4105
  18885  H        148.0690   74.8900  188.1230 H     1962  MOL1962     0.2052
  18886  H        148.7870   73.4690  187.9880 H     1962  MOL1962     0.2052
  18887  O        158.1250   36.1230  190.5130 O.3   1963  MOL1963    -0.4105
  18888  H        158.6150   36.8010  190.0030 H     1963  MOL1963     0.2052
  18889  H        157.3200   36.5500  190.9040 H     1963  MOL1963     0.2052
  18890  O        108.4240  131.2630   47.1720 O.3   1964  MOL1964    -0.4105
  18891  H        107.6520  130.6730   47.3000 H     1964  MOL1964     0.2052
  18892  H        109.2470  130.7120   47.2210 H     1964  MOL1964     0.2052
  18893  O        129.0290    0.9650  111.0370 O.3   1965  MOL1965    -0.4105
  18894  H        128.1890    1.0220  110.5350 H     1965  MOL1965     0.2052
  18895  H        129.2500    0.0060  111.1640 H     1965  MOL1965     0.2052
  18896  O         55.4100   15.3280  276.2600 O.3   1966  MOL1966    -0.4105
  18897  H         54.5670   15.8270  276.2940 H     1966  MOL1966     0.2052
  18898  H         55.1970   14.3590  276.2610 H     1966  MOL1966     0.2052
  18899  O        155.2770  169.2740  158.3630 O.3   1967  MOL1967    -0.4105
  18900  H        154.9920  170.1990  158.2080 H     1967  MOL1967     0.2052
  18901  H        154.4670  168.7070  158.4370 H     1967  MOL1967     0.2052
  18902  O        153.4620  195.0260   10.6450 O.3   1968  MOL1968    -0.4105
  18903  H        154.3190  194.5510   10.6320 H     1968  MOL1968     0.2052
  18904  H        153.5950  195.9180   10.2310 H     1968  MOL1968     0.2052
  18905  O         70.2640  189.6890   32.4320 O.3   1969  MOL1969    -0.4105
  18906  H         70.9610  190.3130   32.1410 H     1969  MOL1969     0.2052
  18907  H         70.7000  188.9410   32.9170 H     1969  MOL1969     0.2052
  18908  O         47.5920  193.9560  150.0760 O.3   1970  MOL1970    -0.4105
  18909  H         48.5600  194.0490  149.9520 H     1970  MOL1970     0.2052
  18910  H         47.1390  194.6170  149.4910 H     1970  MOL1970     0.2052
  18911  O         74.5150   96.8670    8.1580 O.3   1971  MOL1971    -0.4105
  18912  H         75.2020   96.4510    8.7190 H     1971  MOL1971     0.2052
  18913  H         74.8630   97.7400    7.8380 H     1971  MOL1971     0.2052
  18914  O         89.5220  119.5530  180.9880 O.3   1972  MOL1972    -0.4105
  18915  H         89.4510  120.5280  180.9170 H     1972  MOL1972     0.2052
  18916  H         90.4840  119.3130  181.0210 H     1972  MOL1972     0.2052
  18917  O        102.3600    4.2530  128.5960 O.3   1973  MOL1973    -0.4105
  18918  H        102.1680    3.2940  128.6540 H     1973  MOL1973     0.2052
  18919  H        101.4960    4.7420  128.5840 H     1973  MOL1973     0.2052
  18920  O        139.6490   23.2780  211.8050 O.3   1974  MOL1974    -0.4105
  18921  H        140.4840   23.7830  211.7150 H     1974  MOL1974     0.2052
  18922  H        139.7470   22.4250  211.3070 H     1974  MOL1974     0.2052
  18923  O        188.8920  147.9750    6.3470 O.3   1975  MOL1975    -0.4105
  18924  H        188.3410  147.6340    5.6110 H     1975  MOL1975     0.2052
  18925  H        188.3350  148.5890    6.8920 H     1975  MOL1975     0.2052
  18926  O         74.5150  140.5550  241.9070 O.3   1976  MOL1976    -0.4105
  18927  H         74.9000  139.6810  241.6860 H     1976  MOL1976     0.2052
  18928  H         74.7210  140.7530  242.8580 H     1976  MOL1976     0.2052
  18929  O          5.2870  129.3090   35.2640 O.3   1977  MOL1977    -0.4105
  18930  H          4.3520  129.5510   35.1010 H     1977  MOL1977     0.2052
  18931  H          5.3040  128.5330   35.8820 H     1977  MOL1977     0.2052
  18932  O         19.7670    5.4780   69.0650 O.3   1978  MOL1978    -0.4105
  18933  H         18.8890    5.1220   68.8150 H     1978  MOL1978     0.2052
  18934  H         20.3150    4.7310   69.4210 H     1978  MOL1978     0.2052
  18935  O        130.0420  161.5660  291.0050 O.3   1979  MOL1979    -0.4105
  18936  H        130.2960  160.6200  290.9770 H     1979  MOL1979     0.2052
  18937  H        130.8650  162.1110  290.8970 H     1979  MOL1979     0.2052
  18938  O        123.5700  180.4170  259.7350 O.3   1980  MOL1980    -0.4105
  18939  H        123.1090  180.7600  260.5300 H     1980  MOL1980     0.2052
  18940  H        123.1090  180.7720  258.9320 H     1980  MOL1980     0.2052
  18941  O         51.9920  149.8230  215.8790 O.3   1981  MOL1981    -0.4105
  18942  H         51.8990  150.3140  216.7220 H     1981  MOL1981     0.2052
  18943  H         52.2330  148.8840  216.0910 H     1981  MOL1981     0.2052
  18944  O        126.9910   14.4090  108.3560 O.3   1982  MOL1982    -0.4105
  18945  H        126.9670   13.7560  109.0870 H     1982  MOL1982     0.2052
  18946  H        127.8760   14.3460  107.9120 H     1982  MOL1982     0.2052
  18947  O        167.7070  140.1010   22.6670 O.3   1983  MOL1983    -0.4105
  18948  H        166.8870  140.2500   23.1820 H     1983  MOL1983     0.2052
  18949  H        167.5250  139.4000   21.9890 H     1983  MOL1983     0.2052
  18950  O        102.2330  194.1690   80.8760 O.3   1984  MOL1984    -0.4105
  18951  H        103.0890  194.6450   80.8700 H     1984  MOL1984     0.2052
  18952  H        102.4180  193.1990   80.9730 H     1984  MOL1984     0.2052
  18953  O        134.1600  181.0730  223.6900 O.3   1985  MOL1985    -0.4105
  18954  H        134.1250  180.3420  223.0390 H     1985  MOL1985     0.2052
  18955  H        133.5360  181.7850  223.3920 H     1985  MOL1985     0.2052
  18956  O        134.4980  138.1900  254.3380 O.3   1986  MOL1986    -0.4105
  18957  H        133.5280  138.0990  254.4430 H     1986  MOL1986     0.2052
  18958  H        134.8540  138.6570  255.1380 H     1986  MOL1986     0.2052
  18959  O         89.1010   41.5680  202.9290 O.3   1987  MOL1987    -0.4105
  18960  H         89.9560   41.6840  203.3940 H     1987  MOL1987     0.2052
  18961  H         89.1080   42.1410  202.1190 H     1987  MOL1987     0.2052
  18962  O          4.1590   75.2360   26.3060 O.3   1988  MOL1988    -0.4105
  18963  H          3.9590   76.0890   26.7450 H     1988  MOL1988     0.2052
  18964  H          3.3440   74.9340   25.8280 H     1988  MOL1988     0.2052
  18965  O         41.4100  129.0760  285.0040 O.3   1989  MOL1989    -0.4105
  18966  H         40.5200  129.2390  284.6280 H     1989  MOL1989     0.2052
  18967  H         42.0430  129.7230  284.5950 H     1989  MOL1989     0.2052
  18968  O        138.7880   44.3570  283.3230 O.3   1990  MOL1990    -0.4105
  18969  H        138.6010   45.2990  283.5190 H     1990  MOL1990     0.2052
  18970  H        138.0880   44.0230  282.7040 H     1990  MOL1990     0.2052
  18971  O        104.7040  169.2250    8.8470 O.3   1991  MOL1991    -0.4105
  18972  H        104.7790  170.0390    8.3060 H     1991  MOL1991     0.2052
  18973  H        103.7830  169.1790    9.2130 H     1991  MOL1991     0.2052
  18974  O        196.1750  177.2740   23.3210 O.3   1992  MOL1992    -0.4105
  18975  H        195.4630  176.7670   22.8770 H     1992  MOL1992     0.2052
  18976  H        196.7900  176.6280   23.7560 H     1992  MOL1992     0.2052
  18977  O        163.9290  144.2520  195.3760 O.3   1993  MOL1993    -0.4105
  18978  H        163.5880  144.8980  194.7220 H     1993  MOL1993     0.2052
  18979  H        163.3040  143.4820  195.4050 H     1993  MOL1993     0.2052
  18980  O         93.0530   11.8980  266.3150 O.3   1994  MOL1994    -0.4105
  18981  H         92.9380   12.6810  265.7370 H     1994  MOL1994     0.2052
  18982  H         92.5590   12.0610  267.1600 H     1994  MOL1994     0.2052
  18983  O         48.1810  188.5170   31.5280 O.3   1995  MOL1995    -0.4105
  18984  H         48.6480  189.3720   31.4220 H     1995  MOL1995     0.2052
  18985  H         48.7870  187.8890   32.0000 H     1995  MOL1995     0.2052
  18986  O         69.7020   75.6400  237.5870 O.3   1996  MOL1996    -0.4105
  18987  H         68.8770   75.7430  238.1070 H     1996  MOL1996     0.2052
  18988  H         69.5130   75.9040  236.6500 H     1996  MOL1996     0.2052
  18989  O        113.1150   16.3680  167.8220 O.3   1997  MOL1997    -0.4105
  18990  H        112.9300   16.0830  166.9030 H     1997  MOL1997     0.2052
  18991  H        114.0920   16.5210  167.9090 H     1997  MOL1997     0.2052
  18992  O          9.4510  110.0670  284.1500 O.3   1998  MOL1998    -0.4105
  18993  H         10.3300  110.3440  284.4820 H     1998  MOL1998     0.2052
  18994  H          9.0420  109.4610  284.8210 H     1998  MOL1998     0.2052
  18995  O        169.3290  199.0220   22.2460 O.3   1999  MOL1999    -0.4105
  18996  H        170.1150  199.6050   22.3070 H     1999  MOL1999     0.2052
  18997  H        168.7660  199.1760   23.0490 H     1999  MOL1999     0.2052
  18998  O         62.7070   12.7180  231.5310 O.3   2000  MOL2000    -0.4105
  18999  H         63.1410   11.9090  231.1900 H     2000  MOL2000     0.2052
  19000  H         61.7800   12.4850  231.7970 H     2000  MOL2000     0.2052
  19001  O         53.7940  142.5900  182.9880 O.3   2001  MOL2001    -0.4105
  19002  H         54.1900  143.0810  182.2380 H     2001  MOL2001     0.2052
  19003  H         54.0670  143.0370  183.8310 H     2001  MOL2001     0.2052
  19004  O         33.0100  176.9250  277.3940 O.3   2002  MOL2002    -0.4105
  19005  H         32.1950  176.4180  277.1950 H     2002  MOL2002     0.2052
  19006  H         33.7590  176.2810  277.4920 H     2002  MOL2002     0.2052
  19007  O        185.6680   68.5950  142.2510 O.3   2003  MOL2003    -0.4105
  19008  H        184.9320   68.2310  142.7860 H     2003  MOL2003     0.2052
  19009  H        185.6010   69.5850  142.2620 H     2003  MOL2003     0.2052
  19010  O        161.0720  128.2720  248.8290 O.3   2004  MOL2004    -0.4105
  19011  H        160.2130  127.8630  249.0650 H     2004  MOL2004     0.2052
  19012  H        160.9290  128.8650  248.0470 H     2004  MOL2004     0.2052
  19013  O        151.0100  151.5580  232.3260 O.3   2005  MOL2005    -0.4105
  19014  H        150.6200  152.4560  232.3620 H     2005  MOL2005     0.2052
  19015  H        150.2690  150.8980  232.3150 H     2005  MOL2005     0.2052
  19016  O        149.5180  181.7330   17.2680 O.3   2006  MOL2006    -0.4105
  19017  H        148.7860  181.6490   16.6210 H     2006  MOL2006     0.2052
  19018  H        149.3770  182.5650   17.7900 H     2006  MOL2006     0.2052
  19019  O        106.7080  186.2940  281.1420 O.3   2007  MOL2007    -0.4105
  19020  H        106.6550  185.8350  280.2780 H     2007  MOL2007     0.2052
  19021  H        107.4210  185.8610  281.6800 H     2007  MOL2007     0.2052
  19022  O         64.4340  187.8180   87.4420 O.3   2008  MOL2008    -0.4105
  19023  H         65.3050  187.3720   87.5020 H     2008  MOL2008     0.2052
  19024  H         64.5860  188.7980   87.4470 H     2008  MOL2008     0.2052
  19025  O        189.1050  110.3620  105.0430 O.3   2009  MOL2009    -0.4105
  19026  H        188.6680  110.5460  105.9010 H     2009  MOL2009     0.2052
  19027  H        188.4990  109.7920  104.5020 H     2009  MOL2009     0.2052
  19028  O        159.2750   32.6750   79.7430 O.3   2010  MOL2010    -0.4105
  19029  H        159.4260   32.2510   80.6130 H     2010  MOL2010     0.2052
  19030  H        158.7290   33.4910   79.8860 H     2010  MOL2010     0.2052
  19031  O         55.1870  101.4910  246.2730 O.3   2011  MOL2011    -0.4105
  19032  H         54.5390  101.2670  246.9740 H     2011  MOL2011     0.2052
  19033  H         55.7580  102.2310  246.6050 H     2011  MOL2011     0.2052
  19034  O        144.9220  183.5160  202.5140 O.3   2012  MOL2012    -0.4105
  19035  H        145.1770  182.9730  203.2890 H     2012  MOL2012     0.2052
  19036  H        144.2140  183.0310  202.0150 H     2012  MOL2012     0.2052
  19037  O          4.3010   59.8950  286.3680 O.3   2013  MOL2013    -0.4105
  19038  H          4.2380   60.8490  286.5840 H     2013  MOL2013     0.2052
  19039  H          5.1990   59.7230  285.9820 H     2013  MOL2013     0.2052
  19040  O          1.9090  196.8060   69.4000 O.3   2014  MOL2014    -0.4105
  19041  H          0.9970  196.4600   69.3000 H     2014  MOL2014     0.2052
  19042  H          1.8580  197.7930   69.4900 H     2014  MOL2014     0.2052
  19043  O        171.9560  158.8730    7.0690 O.3   2015  MOL2015    -0.4105
  19044  H        172.4960  158.1280    6.7320 H     2015  MOL2015     0.2052
  19045  H        171.4620  159.2700    6.3060 H     2015  MOL2015     0.2052
  19046  O        161.6220   73.8370  273.0870 O.3   2016  MOL2016    -0.4105
  19047  H        160.9230   73.1580  272.9860 H     2016  MOL2016     0.2052
  19048  H        161.4040   74.5990  272.4900 H     2016  MOL2016     0.2052
  19049  O        128.7670    7.8610  126.4800 O.3   2017  MOL2017    -0.4105
  19050  H        129.0390    8.3350  127.2940 H     2017  MOL2017     0.2052
  19051  H        128.9190    6.8900  126.6220 H     2017  MOL2017     0.2052
  19052  O         39.5700  112.6800   92.9140 O.3   2018  MOL2018    -0.4105
  19053  H         39.4130  113.5130   92.4230 H     2018  MOL2018     0.2052
  19054  H         39.3190  112.8260   93.8630 H     2018  MOL2018     0.2052
  19055  O         89.8130   15.4070  189.5920 O.3   2019  MOL2019    -0.4105
  19056  H         88.9370   15.5730  189.9990 H     2019  MOL2019     0.2052
  19057  H         89.9140   16.0160  188.8150 H     2019  MOL2019     0.2052
  19058  O        173.4050   49.8530    9.1800 O.3   2020  MOL2020    -0.4105
  19059  H        174.3210   50.1510    9.3580 H     2020  MOL2020     0.2052
  19060  H        173.3440   49.5900    8.2250 H     2020  MOL2020     0.2052
  19061  O        197.9580   29.6760    2.4170 O.3   2021  MOL2021    -0.4105
  19062  H        197.8330   30.1890    3.2440 H     2021  MOL2021     0.2052
  19063  H        198.7200   30.0710    1.9200 H     2021  MOL2021     0.2052
  19064  O        173.5420   11.7460   87.6100 O.3   2022  MOL2022    -0.4105
  19065  H        174.1280   12.0790   86.8980 H     2022  MOL2022     0.2052
  19066  H        173.7010   10.7720   87.7130 H     2022  MOL2022     0.2052
  19067  O        134.1690  170.9190  213.3860 O.3   2023  MOL2023    -0.4105
  19068  H        133.5140  170.2220  213.6000 H     2023  MOL2023     0.2052
  19069  H        133.8560  171.7720  213.7840 H     2023  MOL2023     0.2052
  19070  O        188.2090   21.9130  217.4620 O.3   2024  MOL2024    -0.4105
  19071  H        187.2930   22.2590  217.5060 H     2024  MOL2024     0.2052
  19072  H        188.4650   21.8330  216.5070 H     2024  MOL2024     0.2052
  19073  O         88.8910   27.8310   68.5970 O.3   2025  MOL2025    -0.4105
  19074  H         88.3650   28.4220   69.1750 H     2025  MOL2025     0.2052
  19075  H         88.4100   26.9670   68.5150 H     2025  MOL2025     0.2052
  19076  O        184.4980  127.2570   74.7810 O.3   2026  MOL2026    -0.4105
  19077  H        183.9110  127.8250   74.2380 H     2026  MOL2026     0.2052
  19078  H        184.7510  126.4650   74.2390 H     2026  MOL2026     0.2052
  19079  O         92.4840  102.3080  218.4680 O.3   2027  MOL2027    -0.4105
  19080  H         92.1080  101.5750  218.9990 H     2027  MOL2027     0.2052
  19081  H         93.2810  102.6590  218.9430 H     2027  MOL2027     0.2052
  19082  O        167.6900   64.3370  165.6500 O.3   2028  MOL2028    -0.4105
  19083  H        168.5590   64.4310  165.2070 H     2028  MOL2028     0.2052
  19084  H        167.2190   65.2080  165.5970 H     2028  MOL2028     0.2052
  19085  O         43.8510   35.9310   71.3360 O.3   2029  MOL2029    -0.4105
  19086  H         43.2900   36.7340   71.3570 H     2029  MOL2029     0.2052
  19087  H         44.7530   36.1740   71.6720 H     2029  MOL2029     0.2052
  19088  O         28.7550  116.7460   47.1850 O.3   2030  MOL2030    -0.4105
  19089  H         28.3130  115.9330   46.8610 H     2030  MOL2030     0.2052
  19090  H         29.0490  116.5880   48.1190 H     2030  MOL2030     0.2052
  19091  O         63.8480  110.9120    3.6950 O.3   2031  MOL2031    -0.4105
  19092  H         63.9730  111.7870    3.2720 H     2031  MOL2031     0.2052
  19093  H         64.4580  110.8540    4.4750 H     2031  MOL2031     0.2052
  19094  O         53.2460   26.0430  269.7080 O.3   2032  MOL2032    -0.4105
  19095  H         53.7320   26.7750  270.1430 H     2032  MOL2032     0.2052
  19096  H         53.8710   25.2810  269.5920 H     2032  MOL2032     0.2052
  19097  O         79.2510   29.1740  111.0260 O.3   2033  MOL2033    -0.4105
  19098  H         80.0590   29.4280  111.5180 H     2033  MOL2033     0.2052
  19099  H         78.8020   30.0030  110.7160 H     2033  MOL2033     0.2052
  19100  O        151.2000   90.4280   12.2060 O.3   2034  MOL2034    -0.4105
  19101  H        151.9280   90.0560   11.6650 H     2034  MOL2034     0.2052
  19102  H        151.3040   90.0970   13.1350 H     2034  MOL2034     0.2052
  19103  O          3.1740    2.1250   54.8040 O.3   2035  MOL2035    -0.4105
  19104  H          3.9920    2.6650   54.7790 H     2035  MOL2035     0.2052
  19105  H          3.4340    1.1680   54.8220 H     2035  MOL2035     0.2052
  19106  O        168.3480    2.4620   61.4420 O.3   2036  MOL2036    -0.4105
  19107  H        167.6500    2.0260   61.9730 H     2036  MOL2036     0.2052
  19108  H        168.3690    3.4240   61.6860 H     2036  MOL2036     0.2052
  19109  O        170.6500  131.6710   11.6540 O.3   2037  MOL2037    -0.4105
  19110  H        170.1610  130.8510   11.8770 H     2037  MOL2037     0.2052
  19111  H        171.2650  131.8800   12.4040 H     2037  MOL2037     0.2052
  19112  O         98.7440  157.6150  204.5140 O.3   2038  MOL2038    -0.4105
  19113  H         97.9780  157.2520  204.0210 H     2038  MOL2038     0.2052
  19114  H         99.3910  156.8790  204.6680 H     2038  MOL2038     0.2052
  19115  O         76.7500   77.1360   55.7290 O.3   2039  MOL2039    -0.4105
  19116  H         76.7900   76.1720   55.9050 H     2039  MOL2039     0.2052
  19117  H         76.0920   77.2920   55.0030 H     2039  MOL2039     0.2052
  19118  O        131.6310  178.3160   80.7950 O.3   2040  MOL2040    -0.4105
  19119  H        130.7140  178.6610   80.7880 H     2040  MOL2040     0.2052
  19120  H        132.2530  179.0890   80.8050 H     2040  MOL2040     0.2052
  19121  O        110.2490   56.4540   44.2000 O.3   2041  MOL2041    -0.4105
  19122  H        110.3510   56.9200   45.0570 H     2041  MOL2041     0.2052
  19123  H        111.1300   56.0750   43.9460 H     2041  MOL2041     0.2052
  19124  O         35.0010   68.0010  255.8800 O.3   2042  MOL2042    -0.4105
  19125  H         34.9030   68.9750  255.9160 H     2042  MOL2042     0.2052
  19126  H         34.1880   67.5920  256.2770 H     2042  MOL2042     0.2052
  19127  O        126.0240  126.0830  206.7330 O.3   2043  MOL2043    -0.4105
  19128  H        125.1610  125.6780  206.9600 H     2043  MOL2043     0.2052
  19129  H        126.0080  126.3300  205.7720 H     2043  MOL2043     0.2052
  19130  O         65.2280   38.5670  250.8170 O.3   2044  MOL2044    -0.4105
  19131  H         66.1020   38.6270  250.3780 H     2044  MOL2044     0.2052
  19132  H         64.9020   37.6330  250.7330 H     2044  MOL2044     0.2052
  19133  O         26.1060  155.8690   99.6050 O.3   2045  MOL2045    -0.4105
  19134  H         26.5420  156.3220  100.3570 H     2045  MOL2045     0.2052
  19135  H         26.7750  155.7550   98.8820 H     2045  MOL2045     0.2052
  19136  O        128.7630  171.4250  296.9760 O.3   2046  MOL2046    -0.4105
  19137  H        128.0620  172.0940  296.8290 H     2046  MOL2046     0.2052
  19138  H        129.1640  171.5880  297.8690 H     2046  MOL2046     0.2052
  19139  O         43.6240  149.1500  248.9980 O.3   2047  MOL2047    -0.4105
  19140  H         43.2230  148.2560  249.0140 H     2047  MOL2047     0.2052
  19141  H         42.8920  149.8170  248.9210 H     2047  MOL2047     0.2052
  19142  O        187.9850  156.9070  158.2200 O.3   2048  MOL2048    -0.4105
  19143  H        187.4250  157.4680  158.7980 H     2048  MOL2048     0.2052
  19144  H        188.3040  156.1330  158.7540 H     2048  MOL2048     0.2052
  19145  O        116.6870  179.9620  273.4310 O.3   2049  MOL2049    -0.4105
  19146  H        116.1190  179.4070  274.0060 H     2049  MOL2049     0.2052
  19147  H        117.6070  179.9520  273.8010 H     2049  MOL2049     0.2052
  19148  O        177.2650  180.8920  179.1360 O.3   2050  MOL2050    -0.4105
  19149  H        176.9950  180.1060  178.6170 H     2050  MOL2050     0.2052
  19150  H        177.4590  181.6300  178.5020 H     2050  MOL2050     0.2052
  19151  O          7.3210  185.5580  267.0500 O.3   2051  MOL2051    -0.4105
  19152  H          6.5130  186.0970  266.9180 H     2051  MOL2051     0.2052
  19153  H          7.3330  185.2410  267.9900 H     2051  MOL2051     0.2052
  19154  O        174.6890  175.5460  220.3760 O.3   2052  MOL2052    -0.4105
  19155  H        175.1040  176.4090  220.5840 H     2052  MOL2052     0.2052
  19156  H        175.3270  174.8270  220.6220 H     2052  MOL2052     0.2052
  19157  O        126.1780  111.7230   15.7770 O.3   2053  MOL2053    -0.4105
  19158  H        125.4810  111.0540   15.9360 H     2053  MOL2053     0.2052
  19159  H        126.1410  112.3910   16.5090 H     2053  MOL2053     0.2052
  19160  O        130.9860  162.1200  296.9650 O.3   2054  MOL2054    -0.4105
  19161  H        131.6770  161.5700  297.3900 H     2054  MOL2054     0.2052
  19162  H        131.2320  163.0740  297.0830 H     2054  MOL2054     0.2052
  19163  O         89.6330   54.0020   58.7350 O.3   2055  MOL2055    -0.4105
  19164  H         90.1410   53.8570   59.5600 H     2055  MOL2055     0.2052
  19165  H         89.3390   54.9490   58.7130 H     2055  MOL2055     0.2052
  19166  O         74.0360   80.4400   39.2000 O.3   2056  MOL2056    -0.4105
  19167  H         73.2290   80.6210   38.6750 H     2056  MOL2056     0.2052
  19168  H         74.6280   81.2340   39.1430 H     2056  MOL2056     0.2052
  19169  O        127.9610  133.0190  193.2370 O.3   2057  MOL2057    -0.4105
  19170  H        128.9270  132.8720  193.1530 H     2057  MOL2057     0.2052
  19171  H        127.8080  133.9870  193.3970 H     2057  MOL2057     0.2052
  19172  O         68.0140   59.7910   71.4530 O.3   2058  MOL2058    -0.4105
  19173  H         68.3720   58.8900   71.3090 H     2058  MOL2058     0.2052
  19174  H         67.0310   59.7190   71.5670 H     2058  MOL2058     0.2052
  19175  O         64.0920  102.3020  219.6240 O.3   2059  MOL2059    -0.4105
  19176  H         64.9420  102.7530  219.4390 H     2059  MOL2059     0.2052
  19177  H         63.3700  102.9820  219.6130 H     2059  MOL2059     0.2052
  19178  O        124.0200  101.9610   11.5300 O.3   2060  MOL2060    -0.4105
  19179  H        124.7550  102.4330   11.9730 H     2060  MOL2060     0.2052
  19180  H        124.3620  101.0850   11.2110 H     2060  MOL2060     0.2052
  19181  O         80.3100  149.1720  221.0010 O.3   2061  MOL2061    -0.4105
  19182  H         80.6570  149.9590  220.5320 H     2061  MOL2061     0.2052
  19183  H         80.7020  148.3630  220.5820 H     2061  MOL2061     0.2052
  19184  O          3.8960  184.4380   90.5770 O.3   2062  MOL2062    -0.4105
  19185  H          3.3760  185.0180   89.9830 H     2062  MOL2062     0.2052
  19186  H          3.4090  183.5790   90.6780 H     2062  MOL2062     0.2052
  19187  O         42.5790  103.9790  177.0970 O.3   2063  MOL2063    -0.4105
  19188  H         42.7970  103.0370  176.9350 H     2063  MOL2063     0.2052
  19189  H         41.5920  104.0600  177.1690 H     2063  MOL2063     0.2052
  19190  O         47.2940   92.1650  205.4830 O.3   2064  MOL2064    -0.4105
  19191  H         47.9270   92.2340  206.2280 H     2064  MOL2064     0.2052
  19192  H         46.8240   93.0340  205.3940 H     2064  MOL2064     0.2052
  19193  O        166.4020   44.5210   80.7140 O.3   2065  MOL2065    -0.4105
  19194  H        165.6900   45.0980   81.0630 H     2065  MOL2065     0.2052
  19195  H        165.9970   43.6530   80.4540 H     2065  MOL2065     0.2052
  19196  O          2.0940  171.0800   76.9080 O.3   2066  MOL2066    -0.4105
  19197  H          1.6060  170.9620   76.0660 H     2066  MOL2066     0.2052
  19198  H          2.3300  172.0390   76.9970 H     2066  MOL2066     0.2052
  19199  O         95.5100  105.6550  203.7740 O.3   2067  MOL2067    -0.4105
  19200  H         95.1460  104.7510  203.6750 H     2067  MOL2067     0.2052
  19201  H         96.4870  105.6160  203.6080 H     2067  MOL2067     0.2052
  19202  O         71.3630   46.9210  105.9150 O.3   2068  MOL2068    -0.4105
  19203  H         71.5550   46.9530  104.9540 H     2068  MOL2068     0.2052
  19204  H         71.9070   47.6190  106.3640 H     2068  MOL2068     0.2052
  19205  O        104.9870  117.4700  233.9830 O.3   2069  MOL2069    -0.4105
  19206  H        104.3490  117.8920  234.5960 H     2069  MOL2069     0.2052
  19207  H        105.8430  117.9690  234.0340 H     2069  MOL2069     0.2052
  19208  O        189.9880   41.1300  151.3950 O.3   2070  MOL2070    -0.4105
  19209  H        190.6890   41.6220  151.8710 H     2070  MOL2070     0.2052
  19210  H        189.9010   41.5170  150.4850 H     2070  MOL2070     0.2052
  19211  O        181.5670   25.4660  103.5630 O.3   2071  MOL2071    -0.4105
  19212  H        182.2290   26.0810  103.1850 H     2071  MOL2071     0.2052
  19213  H        181.8590   24.5380  103.3690 H     2071  MOL2071     0.2052
  19214  O          6.2780  108.1860   54.9120 O.3   2072  MOL2072    -0.4105
  19215  H          7.0520  107.7310   55.3040 H     2072  MOL2072     0.2052
  19216  H          5.4960  107.5770   54.9740 H     2072  MOL2072     0.2052
  19217  O        104.4690   44.5800  264.8160 O.3   2073  MOL2073    -0.4105
  19218  H        104.4290   43.6030  264.8880 H     2073  MOL2073     0.2052
  19219  H        104.7390   44.8110  263.8900 H     2073  MOL2073     0.2052
  19220  O        168.3150  114.0850  173.5600 O.3   2074  MOL2074    -0.4105
  19221  H        168.6630  113.6330  172.7630 H     2074  MOL2074     0.2052
  19222  H        168.0910  115.0200  173.3130 H     2074  MOL2074     0.2052
  19223  O         37.8250   17.6830   56.8980 O.3   2075  MOL2075    -0.4105
  19224  H         37.7920   17.8020   57.8700 H     2075  MOL2075     0.2052
  19225  H         38.7760   17.6210   56.6240 H     2075  MOL2075     0.2052
  19226  O         14.6930   85.9320   90.1240 O.3   2076  MOL2076    -0.4105
  19227  H         14.4530   86.5670   89.4170 H     2076  MOL2076     0.2052
  19228  H         14.6520   85.0160   89.7450 H     2076  MOL2076     0.2052
  19229  O        114.4240   34.2110  107.0060 O.3   2077  MOL2077    -0.4105
  19230  H        115.2230   34.2750  107.5700 H     2077  MOL2077     0.2052
  19231  H        114.5510   33.4600  106.3710 H     2077  MOL2077     0.2052
  19232  O         80.0510   37.8980  220.9680 O.3   2078  MOL2078    -0.4105
  19233  H         79.0890   38.0650  221.0580 H     2078  MOL2078     0.2052
  19234  H         80.3220   38.1370  220.0440 H     2078  MOL2078     0.2052
  19235  O        106.5010   30.8010   26.7510 O.3   2079  MOL2079    -0.4105
  19236  H        107.4470   30.6460   26.5460 H     2079  MOL2079     0.2052
  19237  H        106.4160   31.7020   27.1580 H     2079  MOL2079     0.2052
  19238  O         44.3230   28.9110  273.1120 O.3   2080  MOL2080    -0.4105
  19239  H         44.7600   28.1100  272.7550 H     2080  MOL2080     0.2052
  19240  H         43.3410   28.7900  273.0340 H     2080  MOL2080     0.2052
  19241  O         96.5790   48.4100  228.3550 O.3   2081  MOL2081    -0.4105
  19242  H         96.5550   47.4460  228.1820 H     2081  MOL2081     0.2052
  19243  H         96.8650   48.8680  227.5230 H     2081  MOL2081     0.2052
  19244  O         26.3370   72.6200  145.9490 O.3   2082  MOL2082    -0.4105
  19245  H         26.2570   72.0500  146.7420 H     2082  MOL2082     0.2052
  19246  H         27.2460   72.4980  145.5690 H     2082  MOL2082     0.2052
  19247  O         57.7410  191.8360  136.7090 O.3   2083  MOL2083    -0.4105
  19248  H         57.1470  191.1260  136.3900 H     2083  MOL2083     0.2052
  19249  H         57.1830  192.5490  137.1150 H     2083  MOL2083     0.2052
  19250  O         78.8560   84.8660   59.3300 O.3   2084  MOL2084    -0.4105
  19251  H         78.2670   84.1300   59.0650 H     2084  MOL2084     0.2052
  19252  H         78.5330   85.2260   60.1970 H     2084  MOL2084     0.2052
  19253  O        103.7960   87.8670  213.3130 O.3   2085  MOL2085    -0.4105
  19254  H        103.1870   88.0190  212.5600 H     2085  MOL2085     0.2052
  19255  H        104.4200   87.1360  213.0640 H     2085  MOL2085     0.2052
  19256  O        190.2000  123.8260  268.3360 O.3   2086  MOL2086    -0.4105
  19257  H        190.8360  124.5720  268.3370 H     2086  MOL2086     0.2052
  19258  H        190.7160  122.9790  268.3320 H     2086  MOL2086     0.2052
  19259  O         11.7010   27.0750  212.9250 O.3   2087  MOL2087    -0.4105
  19260  H         11.0910   26.3290  212.7430 H     2087  MOL2087     0.2052
  19261  H         12.2310   27.2500  212.1050 H     2087  MOL2087     0.2052
  19262  O        171.3010  140.7770   49.0140 O.3   2088  MOL2088    -0.4105
  19263  H        170.3750  140.4570   49.0370 H     2088  MOL2088     0.2052
  19264  H        171.8940  140.0000   48.8390 H     2088  MOL2088     0.2052
  19265  O        143.5500  125.5730  188.8480 O.3   2089  MOL2089    -0.4105
  19266  H        143.0180  124.9360  188.3270 H     2089  MOL2089     0.2052
  19267  H        143.5110  125.3030  189.8020 H     2089  MOL2089     0.2052
  19268  O        192.9140    3.5970  141.2880 O.3   2090  MOL2090    -0.4105
  19269  H        192.4520    2.7520  141.4710 H     2090  MOL2090     0.2052
  19270  H        193.8200    3.5480  141.6900 H     2090  MOL2090     0.2052
  19271  O        134.4060  104.9860  225.3620 O.3   2091  MOL2091    -0.4105
  19272  H        133.8880  105.6070  224.8080 H     2091  MOL2091     0.2052
  19273  H        134.0410  105.0140  226.2840 H     2091  MOL2091     0.2052
  19274  O         89.1570    1.8230  226.0310 O.3   2092  MOL2092    -0.4105
  19275  H         89.5400    1.1730  225.4050 H     2092  MOL2092     0.2052
  19276  H         88.1810    1.8820  225.8590 H     2092  MOL2092     0.2052
  19277  O         18.3280   18.5100  216.3810 O.3   2093  MOL2093    -0.4105
  19278  H         18.5940   18.6410  217.3160 H     2093  MOL2093     0.2052
  19279  H         17.6050   17.8310  216.3570 H     2093  MOL2093     0.2052
  19280  O         99.4690   82.6500   21.3190 O.3   2094  MOL2094    -0.4105
  19281  H         98.8750   82.2930   20.6260 H     2094  MOL2094     0.2052
  19282  H         99.6620   81.9240   21.9670 H     2094  MOL2094     0.2052
  19283  O         94.4250   25.9010  269.8930 O.3   2095  MOL2095    -0.4105
  19284  H         93.5970   25.7790  270.4030 H     2095  MOL2095     0.2052
  19285  H         95.1570   26.1010  270.5320 H     2095  MOL2095     0.2052
  19286  O         37.1500   45.3410  215.4200 O.3   2096  MOL2096    -0.4105
  19287  H         37.2970   46.2380  215.7870 H     2096  MOL2096     0.2052
  19288  H         36.3920   44.9270  215.9080 H     2096  MOL2096     0.2052
  19289  O         38.9710   85.8860   81.2540 O.3   2097  MOL2097    -0.4105
  19290  H         38.6850   85.0220   80.8910 H     2097  MOL2097     0.2052
  19291  H         39.7460   85.7300   81.8540 H     2097  MOL2097     0.2052
  19292  O        101.9350  133.8710  168.5780 O.3   2098  MOL2098    -0.4105
  19293  H        101.8580  133.2580  169.3390 H     2098  MOL2098     0.2052
  19294  H        102.3300  133.3720  167.8170 H     2098  MOL2098     0.2052
  19295  O         55.5760  196.1900   85.7150 O.3   2099  MOL2099    -0.4105
  19296  H         56.0270  195.4480   85.2610 H     2099  MOL2099     0.2052
  19297  H         54.6400  196.2310   85.3880 H     2099  MOL2099     0.2052
  19298  O        174.8960  145.3190   37.9670 O.3   2100  MOL2100    -0.4105
  19299  H        174.1690  145.9730   37.9010 H     2100  MOL2100     0.2052
  19300  H        175.7560  145.8140   38.0000 H     2100  MOL2100     0.2052
  19301  O        146.1580  170.6530  101.1600 O.3   2101  MOL2101    -0.4105
  19302  H        145.3230  170.1410  101.2120 H     2101  MOL2101     0.2052
  19303  H        145.9280  171.6170  101.1030 H     2101  MOL2101     0.2052
  19304  O        197.9830   54.4130  199.3100 O.3   2102  MOL2102    -0.4105
  19305  H        197.4980   53.9710  200.0370 H     2102  MOL2102     0.2052
  19306  H        198.2930   55.2980  199.6360 H     2102  MOL2102     0.2052
  19307  O         59.6110  171.1260  183.4480 O.3   2103  MOL2103    -0.4105
  19308  H         58.9000  170.4770  183.6330 H     2103  MOL2103     0.2052
  19309  H         60.3540  170.6520  182.9930 H     2103  MOL2103     0.2052
  19310  O        146.9430  157.5820  278.4620 O.3   2104  MOL2104    -0.4105
  19311  H        146.5570  157.0940  279.2190 H     2104  MOL2104     0.2052
  19312  H        146.2030  157.8520  277.8580 H     2104  MOL2104     0.2052
  19313  O        198.7240   52.1510  257.9310 O.3   2105  MOL2105    -0.4105
  19314  H        199.0540   51.3570  258.4010 H     2105  MOL2105     0.2052
  19315  H        199.5040   52.6300  257.5460 H     2105  MOL2105     0.2052
  19316  O         84.8700   31.5000  184.6030 O.3   2106  MOL2106    -0.4105
  19317  H         85.5780   31.9210  185.1340 H     2106  MOL2106     0.2052
  19318  H         83.9950   31.8210  184.9420 H     2106  MOL2106     0.2052
  19319  O         45.7850  155.1950    9.0860 O.3   2107  MOL2107    -0.4105
  19320  H         45.4490  156.0420    9.4470 H     2107  MOL2107     0.2052
  19321  H         46.7240  155.3330    8.7950 H     2107  MOL2107     0.2052
  19322  O        109.2550  170.5990  262.4420 O.3   2108  MOL2108    -0.4105
  19323  H        108.3630  171.0060  262.4350 H     2108  MOL2108     0.2052
  19324  H        109.2060  169.7380  261.9510 H     2108  MOL2108     0.2052
  19325  O        156.1870    2.2010  164.6620 O.3   2109  MOL2109    -0.4105
  19326  H        155.3910    2.3530  165.2110 H     2109  MOL2109     0.2052
  19327  H        156.7200    3.0380  164.6470 H     2109  MOL2109     0.2052
  19328  O         68.2520  195.0330  227.7340 O.3   2110  MOL2110    -0.4105
  19329  H         68.5940  194.7990  226.8450 H     2110  MOL2110     0.2052
  19330  H         67.3280  194.6800  227.8130 H     2110  MOL2110     0.2052
  19331  O        102.2630   19.6720  148.9250 O.3   2111  MOL2111    -0.4105
  19332  H        102.3640   20.2430  149.7150 H     2111  MOL2111     0.2052
  19333  H        101.4360   19.1330  149.0350 H     2111  MOL2111     0.2052
  19334  O         93.5660   11.3740  230.9030 O.3   2112  MOL2112    -0.4105
  19335  H         92.6350   11.6790  230.9500 H     2112  MOL2112     0.2052
  19336  H         94.1550   12.1720  230.9260 H     2112  MOL2112     0.2052
  19337  O         88.9780   76.1570  194.1600 O.3   2113  MOL2113    -0.4105
  19338  H         88.7520   75.2850  193.7730 H     2113  MOL2113     0.2052
  19339  H         88.1500   76.7020  194.2030 H     2113  MOL2113     0.2052
  19340  O        108.8520   99.7910  246.9200 O.3   2114  MOL2114    -0.4105
  19341  H        109.6680  100.2130  247.2630 H     2114  MOL2114     0.2052
  19342  H        108.8300   99.9110  245.9360 H     2114  MOL2114     0.2052
  19343  O         11.5060  157.9630  221.0070 O.3   2115  MOL2115    -0.4105
  19344  H         12.0240  158.7200  220.6630 H     2115  MOL2115     0.2052
  19345  H         12.0450  157.1390  220.8890 H     2115  MOL2115     0.2052
  19346  O          7.3050  184.0510  297.9540 O.3   2116  MOL2116    -0.4105
  19347  H          7.8320  184.5700  297.3110 H     2116  MOL2116     0.2052
  19348  H          7.6650  183.1260  297.9750 H     2116  MOL2116     0.2052
  19349  O        151.4170  186.5620   74.9800 O.3   2117  MOL2117    -0.4105
  19350  H        152.0020  185.7780   74.9180 H     2117  MOL2117     0.2052
  19351  H        151.9820  187.3760   74.9190 H     2117  MOL2117     0.2052
  19352  O        136.6770   40.0040  142.9150 O.3   2118  MOL2118    -0.4105
  19353  H        137.0470   39.1240  142.6920 H     2118  MOL2118     0.2052
  19354  H        137.0000   40.6570  142.2420 H     2118  MOL2118     0.2052
  19355  O        135.4940   13.8080  242.2320 O.3   2119  MOL2119    -0.4105
  19356  H        134.8870   13.0500  242.0940 H     2119  MOL2119     0.2052
  19357  H        136.0690   13.6060  243.0140 H     2119  MOL2119     0.2052
  19358  O         40.0840   81.3000  148.1470 O.3   2120  MOL2120    -0.4105
  19359  H         39.6980   81.3110  147.2470 H     2120  MOL2120     0.2052
  19360  H         39.3410   81.2980  148.8040 H     2120  MOL2120     0.2052
  19361  O         64.4630   58.9330   59.3760 O.3   2121  MOL2121    -0.4105
  19362  H         63.8730   58.9000   60.1570 H     2121  MOL2121     0.2052
  19363  H         64.0100   58.4700   58.6240 H     2121  MOL2121     0.2052
  19364  O         13.5290  168.8620  124.6610 O.3   2122  MOL2122    -0.4105
  19365  H         13.6140  168.4820  125.5600 H     2122  MOL2122     0.2052
  19366  H         14.3960  169.2780  124.4160 H     2122  MOL2122     0.2052
  19367  O        195.6730   41.3110   14.2860 O.3   2123  MOL2123    -0.4105
  19368  H        194.8380   41.2840   13.7730 H     2123  MOL2123     0.2052
  19369  H        196.1720   42.1270   14.0240 H     2123  MOL2123     0.2052
  19370  O         86.6140   28.4400  101.3700 O.3   2124  MOL2124    -0.4105
  19371  H         86.2320   28.4210  102.2720 H     2124  MOL2124     0.2052
  19372  H         86.9830   29.3460  101.2080 H     2124  MOL2124     0.2052
  19373  O         33.6800  157.8010  200.5500 O.3   2125  MOL2125    -0.4105
  19374  H         33.4680  158.7560  200.6120 H     2125  MOL2125     0.2052
  19375  H         34.6660  157.7000  200.5710 H     2125  MOL2125     0.2052
  19376  O        184.0770   31.6490  212.9710 O.3   2126  MOL2126    -0.4105
  19377  H        184.9850   32.0120  213.0370 H     2126  MOL2126     0.2052
  19378  H        183.4660   32.2450  213.4770 H     2126  MOL2126     0.2052
  19379  O         45.1430   17.9190  222.7840 O.3   2127  MOL2127    -0.4105
  19380  H         44.4740   18.4710  222.3280 H     2127  MOL2127     0.2052
  19381  H         46.0380   18.3120  222.6140 H     2127  MOL2127     0.2052
  19382  O          2.4520   62.9850  107.8250 O.3   2128  MOL2128    -0.4105
  19383  H          2.2710   62.0230  107.7810 H     2128  MOL2128     0.2052
  19384  H          2.5180   63.3310  106.8970 H     2128  MOL2128     0.2052
  19385  O        122.8670  100.2320  197.7790 O.3   2129  MOL2129    -0.4105
  19386  H        122.4510   99.6270  198.4280 H     2129  MOL2129     0.2052
  19387  H        123.3510  100.9380  198.2800 H     2129  MOL2129     0.2052
  19388  O          9.2930  186.4840   48.7570 O.3   2130  MOL2130    -0.4105
  19389  H         10.2310  186.1970   48.7620 H     2130  MOL2130     0.2052
  19390  H          8.7210  185.6740   48.7660 H     2130  MOL2130     0.2052
  19391  O        196.4440  136.2580  206.8810 O.3   2131  MOL2131    -0.4105
  19392  H        196.0660  135.5930  207.4940 H     2131  MOL2131     0.2052
  19393  H        197.2270  136.6790  207.3220 H     2131  MOL2131     0.2052
  19394  O         79.9840  175.4690  229.7870 O.3   2132  MOL2132    -0.4105
  19395  H         79.5440  176.1870  230.2880 H     2132  MOL2132     0.2052
  19396  H         80.1240  174.7020  230.4010 H     2132  MOL2132     0.2052
  19397  O        161.6090  100.8390    8.7110 O.3   2133  MOL2133    -0.4105
  19398  H        160.9640  100.6320    9.4190 H     2133  MOL2133     0.2052
  19399  H        161.2190  100.5570    7.8430 H     2133  MOL2133     0.2052
  19400  O        182.0970  199.4120   20.6220 O.3   2134  MOL2134    -0.4105
  19401  H        181.7990  198.4780   20.6190 H     2134  MOL2134     0.2052
  19402  H        181.2950  199.9940   20.6620 H     2134  MOL2134     0.2052
  19403  O         26.8790   82.1230  158.2790 O.3   2135  MOL2135    -0.4105
  19404  H         25.9510   82.3830  158.4580 H     2135  MOL2135     0.2052
  19405  H         26.9410   81.1350  158.3380 H     2135  MOL2135     0.2052
  19406  O        158.8160  171.3760  244.4500 O.3   2136  MOL2136    -0.4105
  19407  H        158.2600  170.8720  243.8200 H     2136  MOL2136     0.2052
  19408  H        159.6380  170.8490  244.6300 H     2136  MOL2136     0.2052
  19409  O         32.0270  153.5330  220.3540 O.3   2137  MOL2137    -0.4105
  19410  H         31.2470  154.1190  220.4410 H     2137  MOL2137     0.2052
  19411  H         32.7730  154.0640  219.9720 H     2137  MOL2137     0.2052
  19412  O        110.1240  171.2210   41.0810 O.3   2138  MOL2138    -0.4105
  19413  H        109.5320  171.9400   41.3850 H     2138  MOL2138     0.2052
  19414  H        111.0290  171.6010   40.9410 H     2138  MOL2138     0.2052
  19415  O         72.2440   30.4030   46.5360 O.3   2139  MOL2139    -0.4105
  19416  H         72.4020   29.4370   46.4910 H     2139  MOL2139     0.2052
  19417  H         71.8810   30.6990   45.6620 H     2139  MOL2139     0.2052
  19418  O        158.4890   35.5860  221.9000 O.3   2140  MOL2140    -0.4105
  19419  H        157.8630   35.7150  221.1580 H     2140  MOL2140     0.2052
  19420  H        158.7750   34.6360  221.9030 H     2140  MOL2140     0.2052
  19421  O        172.4150   45.0040   20.3750 O.3   2141  MOL2141    -0.4105
  19422  H        173.3280   45.2190   20.6590 H     2141  MOL2141     0.2052
  19423  H        172.4160   44.0880   19.9940 H     2141  MOL2141     0.2052
  19424  O         68.5670  109.2920  165.1080 O.3   2142  MOL2142    -0.4105
  19425  H         68.9550  109.0080  164.2540 H     2142  MOL2142     0.2052
  19426  H         67.6060  109.0480  165.1080 H     2142  MOL2142     0.2052
  19427  O        100.0980   10.7390  159.3190 O.3   2143  MOL2143    -0.4105
  19428  H         99.3830   11.1830  159.8230 H     2143  MOL2143     0.2052
  19429  H        100.9410   10.8250  159.8350 H     2143  MOL2143     0.2052
  19430  O         75.5050   57.6950   59.4400 O.3   2144  MOL2144    -0.4105
  19431  H         75.6440   56.8300   59.8790 H     2144  MOL2144     0.2052
  19432  H         76.3830   58.1510   59.3690 H     2144  MOL2144     0.2052
  19433  O          7.1820  160.0720  253.8330 O.3   2145  MOL2145    -0.4105
  19434  H          6.7500  160.9150  253.5830 H     2145  MOL2145     0.2052
  19435  H          7.1100  159.4470  253.0660 H     2145  MOL2145     0.2052
  19436  O         15.4940  107.1140  258.0560 O.3   2146  MOL2146    -0.4105
  19437  H         15.0860  107.8400  258.5730 H     2146  MOL2146     0.2052
  19438  H         15.3900  107.3240  257.0920 H     2146  MOL2146     0.2052
  19439  O         27.4410  189.0520   63.1290 O.3   2147  MOL2147    -0.4105
  19440  H         27.7940  188.7570   62.2640 H     2147  MOL2147     0.2052
  19441  H         27.3200  190.0360   63.0960 H     2147  MOL2147     0.2052
  19442  O        139.2020  158.2020  164.0620 O.3   2148  MOL2148    -0.4105
  19443  H        139.3500  157.2350  163.9910 H     2148  MOL2148     0.2052
  19444  H        138.2550  158.3880  163.8340 H     2148  MOL2148     0.2052
  19445  O         68.7380   86.2670  177.2510 O.3   2149  MOL2149    -0.4105
  19446  H         69.3550   85.6530  176.8010 H     2149  MOL2149     0.2052
  19447  H         68.9320   86.2440  178.2240 H     2149  MOL2149     0.2052
  19448  O         26.9560   60.5860  155.1420 O.3   2150  MOL2150    -0.4105
  19449  H         26.1080   60.5640  154.6510 H     2150  MOL2150     0.2052
  19450  H         27.2490   61.5310  155.2140 H     2150  MOL2150     0.2052
  19451  O         59.9650   97.2300   25.0770 O.3   2151  MOL2151    -0.4105
  19452  H         58.9870   97.2590   25.0270 H     2151  MOL2151     0.2052
  19453  H         60.3040   98.1630   25.0630 H     2151  MOL2151     0.2052
  19454  O         86.2990   22.7190   48.2400 O.3   2152  MOL2152    -0.4105
  19455  H         87.1460   22.9610   48.6700 H     2152  MOL2152     0.2052
  19456  H         85.5830   23.2930   48.6160 H     2152  MOL2152     0.2052
  19457  O        169.9210   28.7950   52.4160 O.3   2153  MOL2153    -0.4105
  19458  H        170.8560   28.7990   52.7110 H     2153  MOL2153     0.2052
  19459  H        169.8780   29.2090   51.5150 H     2153  MOL2153     0.2052
  19460  O        129.3400    8.7430  238.4950 O.3   2154  MOL2154    -0.4105
  19461  H        130.2930    8.9630  238.4270 H     2154  MOL2154     0.2052
  19462  H        128.8740    9.1380  237.7130 H     2154  MOL2154     0.2052
  19463  O         44.0700  151.2280  296.8660 O.3   2155  MOL2155    -0.4105
  19464  H         44.9090  151.3320  297.3600 H     2155  MOL2155     0.2052
  19465  H         43.8970  150.2570  296.7480 H     2155  MOL2155     0.2052
  19466  O        166.4790   18.4980  191.8810 O.3   2156  MOL2156    -0.4105
  19467  H        167.0900   19.2430  191.7070 H     2156  MOL2156     0.2052
  19468  H        165.6800   18.8540  192.3490 H     2156  MOL2156     0.2052
  19469  O        197.0920   98.9050  212.4390 O.3   2157  MOL2157    -0.4105
  19470  H        197.9760   99.3260  212.3940 H     2157  MOL2157     0.2052
  19471  H        197.2170   97.9420  212.6400 H     2157  MOL2157     0.2052
  19472  O         65.8760  176.1390  128.7030 O.3   2158  MOL2158    -0.4105
  19473  H         65.4600  176.7560  128.0650 H     2158  MOL2158     0.2052
  19474  H         66.4950  176.6600  129.2790 H     2158  MOL2158     0.2052
  19475  O        147.3090  143.9650   46.0080 O.3   2159  MOL2159    -0.4105
  19476  H        147.2420  143.6040   45.0990 H     2159  MOL2159     0.2052
  19477  H        148.0120  143.4580   46.4920 H     2159  MOL2159     0.2052
  19478  O         95.3010   75.6190  225.8000 O.3   2160  MOL2160    -0.4105
  19479  H         94.7870   76.2850  226.3020 H     2160  MOL2160     0.2052
  19480  H         95.3560   75.9160  224.8550 H     2160  MOL2160     0.2052
  19481  O         45.2160  162.0050  180.2950 O.3   2161  MOL2161    -0.4105
  19482  H         45.0400  162.9140  180.6140 H     2161  MOL2161     0.2052
  19483  H         45.6630  162.0670  179.4110 H     2161  MOL2161     0.2052
  19484  O        127.5150   40.3240    1.7200 O.3   2162  MOL2162    -0.4105
  19485  H        127.4380   40.8090    0.8720 H     2162  MOL2162     0.2052
  19486  H        126.6370   40.3640    2.1820 H     2162  MOL2162     0.2052
  19487  O        177.3350  188.7290  254.3750 O.3   2163  MOL2163    -0.4105
  19488  H        178.3110  188.6680  254.4490 H     2163  MOL2163     0.2052
  19489  H        177.0200  189.4330  254.9980 H     2163  MOL2163     0.2052
  19490  O         36.1380   43.7540   79.4990 O.3   2164  MOL2164    -0.4105
  19491  H         35.2620   44.1340   79.7220 H     2164  MOL2164     0.2052
  19492  H         36.0040   42.8160   79.2060 H     2164  MOL2164     0.2052
  19493  O        181.9670  185.4080  237.2180 O.3   2165  MOL2165    -0.4105
  19494  H        182.8160  184.9610  237.0180 H     2165  MOL2165     0.2052
  19495  H        181.9720  185.6690  238.1760 H     2165  MOL2165     0.2052
  19496  O         88.0520    1.0320  182.3920 O.3   2166  MOL2166    -0.4105
  19497  H         87.5090    1.4920  181.7180 H     2166  MOL2166     0.2052
  19498  H         89.0090    1.1670  182.1650 H     2166  MOL2166     0.2052
  19499  O        128.0800  122.0910  182.3100 O.3   2167  MOL2167    -0.4105
  19500  H        128.2290  121.4630  181.5720 H     2167  MOL2167     0.2052
  19501  H        127.2010  122.5300  182.1710 H     2167  MOL2167     0.2052
  19502  O        167.6520   80.5860  283.0830 O.3   2168  MOL2168    -0.4105
  19503  H        168.3650   79.9130  283.0650 H     2168  MOL2168     0.2052
  19504  H        166.7790   80.1130  283.0910 H     2168  MOL2168     0.2052
  19505  O        163.0500    7.4080  248.3390 O.3   2169  MOL2169    -0.4105
  19506  H        163.9000    7.3570  248.8250 H     2169  MOL2169     0.2052
  19507  H        163.0410    6.6920  247.6530 H     2169  MOL2169     0.2052
  19508  O         20.6980   24.7880   91.5780 O.3   2170  MOL2170    -0.4105
  19509  H         20.5940   25.3420   90.7760 H     2170  MOL2170     0.2052
  19510  H         20.0830   24.0130   91.5020 H     2170  MOL2170     0.2052
  19511  O         14.7390  155.3930   38.3920 O.3   2171  MOL2171    -0.4105
  19512  H         13.8760  155.6000   38.8060 H     2171  MOL2171     0.2052
  19513  H         15.2000  156.2490   38.1900 H     2171  MOL2171     0.2052
  19514  O         39.4730   73.1840  283.2130 O.3   2172  MOL2172    -0.4105
  19515  H         39.1800   74.0100  282.7750 H     2172  MOL2172     0.2052
  19516  H         38.7400   72.5190  283.1440 H     2172  MOL2172     0.2052
  19517  O         57.5150  186.3900  282.5850 O.3   2173  MOL2173    -0.4105
  19518  H         57.1190  186.4070  283.4820 H     2173  MOL2173     0.2052
  19519  H         57.7780  185.4560  282.3800 H     2173  MOL2173     0.2052
  19520  O        104.7710  138.7550  291.1180 O.3   2174  MOL2174    -0.4105
  19521  H        103.8410  138.9510  290.8800 H     2174  MOL2174     0.2052
  19522  H        104.9780  137.8300  290.8260 H     2174  MOL2174     0.2052
  19523  O        143.6250  184.0410   69.4650 O.3   2175  MOL2175    -0.4105
  19524  H        144.5880  183.8830   69.5550 H     2175  MOL2175     0.2052
  19525  H        143.1570  183.5100   70.1610 H     2175  MOL2175     0.2052
  19526  O        150.5910  194.6030   34.2220 O.3   2176  MOL2176    -0.4105
  19527  H        150.9600  195.0450   35.0150 H     2176  MOL2176     0.2052
  19528  H        150.4320  195.2930   33.5280 H     2176  MOL2176     0.2052
  19529  O          6.2250  137.1500   42.2470 O.3   2177  MOL2177    -0.4105
  19530  H          5.6730  136.6980   42.9190 H     2177  MOL2177     0.2052
  19531  H          7.1550  136.8150   42.3330 H     2177  MOL2177     0.2052
  19532  O        161.1910   74.0000   99.8480 O.3   2178  MOL2178    -0.4105
  19533  H        160.4430   74.6310   99.8900 H     2178  MOL2178     0.2052
  19534  H        162.0290   74.5200   99.7340 H     2178  MOL2178     0.2052
  19535  O        140.7790  198.6240  249.6170 O.3   2179  MOL2179    -0.4105
  19536  H        140.4880  198.7150  248.6850 H     2179  MOL2179     0.2052
  19537  H        140.0220  198.2580  250.1440 H     2179  MOL2179     0.2052
  19538  O        165.0000   29.1250  224.6570 O.3   2180  MOL2180    -0.4105
  19539  H        165.9620   29.1940  224.4860 H     2180  MOL2180     0.2052
  19540  H        164.6210   30.0420  224.6720 H     2180  MOL2180     0.2052
  19541  O         26.6700   74.2690   38.5360 O.3   2181  MOL2181    -0.4105
  19542  H         26.9660   75.1700   38.2860 H     2181  MOL2181     0.2052
  19543  H         25.7230   74.1660   38.2580 H     2181  MOL2181     0.2052
  19544  O        183.5970    6.7380  186.5550 O.3   2182  MOL2182    -0.4105
  19545  H        183.3340    6.4560  187.4560 H     2182  MOL2182     0.2052
  19546  H        182.7730    6.8570  186.0150 H     2182  MOL2182     0.2052
  19547  O        109.4920   18.3670   83.4130 O.3   2183  MOL2183    -0.4105
  19548  H        108.7640   17.8380   83.8000 H     2183  MOL2183     0.2052
  19549  H        109.1020   19.1910   83.0200 H     2183  MOL2183     0.2052
  19550  O         66.6350  182.2990   76.3330 O.3   2184  MOL2184    -0.4105
  19551  H         66.6470  183.2660   76.1730 H     2184  MOL2184     0.2052
  19552  H         67.5150  181.9280   76.0630 H     2184  MOL2184     0.2052
  19553  O         11.6050   66.5770   93.2220 O.3   2185  MOL2185    -0.4105
  19554  H         12.1080   65.7440   93.3340 H     2185  MOL2185     0.2052
  19555  H         12.1130   67.1660   92.6050 H     2185  MOL2185     0.2052
  19556  O        107.7410   73.5400  283.7990 O.3   2186  MOL2186    -0.4105
  19557  H        107.1060   73.4660  283.0560 H     2186  MOL2186     0.2052
  19558  H        108.0890   72.6330  284.0010 H     2186  MOL2186     0.2052
  19559  O        108.6200   27.4900  203.0350 O.3   2187  MOL2187    -0.4105
  19560  H        109.0710   26.7380  202.5980 H     2187  MOL2187     0.2052
  19561  H        107.6410   27.3470  202.9680 H     2187  MOL2187     0.2052
  19562  O        124.8460    0.9750   57.3470 O.3   2188  MOL2188    -0.4105
  19563  H        124.9280    0.0020   57.4290 H     2188  MOL2188     0.2052
  19564  H        125.4020    1.3950   58.0540 H     2188  MOL2188     0.2052
  19565  O        108.8940  157.6090  288.8670 O.3   2189  MOL2189    -0.4105
  19566  H        109.6800  157.0420  288.7210 H     2189  MOL2189     0.2052
  19567  H        109.2090  158.5250  289.0820 H     2189  MOL2189     0.2052
  19568  O        154.3670   55.4010  156.3670 O.3   2190  MOL2190    -0.4105
  19569  H        153.5310   55.7640  156.7270 H     2190  MOL2190     0.2052
  19570  H        155.0480   56.1220  156.3770 H     2190  MOL2190     0.2052
  19571  O         43.3280   78.8080  238.7400 O.3   2191  MOL2191    -0.4105
  19572  H         42.9010   78.3910  237.9620 H     2191  MOL2191     0.2052
  19573  H         43.7640   78.0950  239.2740 H     2191  MOL2191     0.2052
  19574  O        174.5310   88.8820  102.4770 O.3   2192  MOL2192    -0.4105
  19575  H        173.6000   88.6970  102.7180 H     2192  MOL2192     0.2052
  19576  H        175.0730   88.0790  102.6930 H     2192  MOL2192     0.2052
  19577  O         13.1720   92.9480  209.6480 O.3   2193  MOL2193    -0.4105
  19578  H         14.1290   93.0630  209.8240 H     2193  MOL2193     0.2052
  19579  H         12.7080   93.7890  209.8970 H     2193  MOL2193     0.2052
  19580  O        186.5780  194.5360  184.3290 O.3   2194  MOL2194    -0.4105
  19581  H        185.6340  194.4240  184.0900 H     2194  MOL2194     0.2052
  19582  H        186.8450  193.7720  184.9020 H     2194  MOL2194     0.2052
  19583  O        126.0150  164.6470  167.6720 O.3   2195  MOL2195    -0.4105
  19584  H        125.4480  165.4460  167.6430 H     2195  MOL2195     0.2052
  19585  H        126.4190  164.5870  168.5760 H     2195  MOL2195     0.2052
  19586  O         12.1550  173.4510  180.6070 O.3   2196  MOL2196    -0.4105
  19587  H         13.1180  173.5340  180.4480 H     2196  MOL2196     0.2052
  19588  H         11.7100  174.2650  180.2540 H     2196  MOL2196     0.2052
  19589  O         19.8350   40.8870  103.6760 O.3   2197  MOL2197    -0.4105
  19590  H         19.8640   39.9310  103.8900 H     2197  MOL2197     0.2052
  19591  H         20.4050   41.3690  104.3300 H     2197  MOL2197     0.2052
  19592  O        173.3280  137.3200   63.2630 O.3   2198  MOL2198    -0.4105
  19593  H        173.2220  138.2860   63.1340 H     2198  MOL2198     0.2052
  19594  H        172.4990  136.9710   63.6830 H     2198  MOL2198     0.2052
  19595  O          8.6340   73.7740   16.6180 O.3   2199  MOL2199    -0.4105
  19596  H          8.3110   72.9500   16.1970 H     2199  MOL2199     0.2052
  19597  H          9.4190   74.0970   16.1050 H     2199  MOL2199     0.2052
  19598  O        178.5230   28.8200   92.2230 O.3   2200  MOL2200    -0.4105
  19599  H        179.0210   28.6180   93.0420 H     2200  MOL2200     0.2052
  19600  H        177.5540   28.7900   92.4330 H     2200  MOL2200     0.2052
  19601  O        158.2500  162.3610  247.9430 O.3   2201  MOL2201    -0.4105
  19602  H        158.1230  161.8390  247.1230 H     2201  MOL2201     0.2052
  19603  H        159.0620  162.0230  248.4030 H     2201  MOL2201     0.2052
  19604  O        108.5800  154.7550  242.7850 O.3   2202  MOL2202    -0.4105
  19605  H        108.5500  154.3470  243.6760 H     2202  MOL2202     0.2052
  19606  H        108.3930  155.7250  242.8810 H     2202  MOL2202     0.2052
  19607  O        185.3590  123.5590  232.4470 O.3   2203  MOL2203    -0.4105
  19608  H        186.1390  123.0050  232.2350 H     2203  MOL2203     0.2052
  19609  H        185.4050  124.3830  231.8960 H     2203  MOL2203     0.2052
  19610  O         40.3530   34.8800  294.4010 O.3   2204  MOL2204    -0.4105
  19611  H         39.4870   34.4220  294.3750 H     2204  MOL2204     0.2052
  19612  H         41.0650   34.1950  294.4930 H     2204  MOL2204     0.2052
  19613  O        168.2640   48.2130  197.5720 O.3   2205  MOL2205    -0.4105
  19614  H        168.7370   47.6830  196.8970 H     2205  MOL2205     0.2052
  19615  H        167.6360   48.8220  197.1040 H     2205  MOL2205     0.2052
  19616  O        184.1010  107.8610  147.9910 O.3   2206  MOL2206    -0.4105
  19617  H        183.7760  108.7780  147.8700 H     2206  MOL2206     0.2052
  19618  H        185.0910  107.8710  147.9180 H     2206  MOL2206     0.2052
  19619  O        174.6320  183.9050  253.1700 O.3   2207  MOL2207    -0.4105
  19620  H        174.4100  184.3260  254.0270 H     2207  MOL2207     0.2052
  19621  H        175.1040  184.5740  252.6090 H     2207  MOL2207     0.2052
  19622  O        162.9080    1.1950   14.4510 O.3   2208  MOL2208    -0.4105
  19623  H        163.6090    0.5360   14.2600 H     2208  MOL2208     0.2052
  19624  H        162.0390    0.7190   14.4950 H     2208  MOL2208     0.2052
  19625  O         71.2980   65.2580   15.9060 O.3   2209  MOL2209    -0.4105
  19626  H         70.5540   65.3800   16.5320 H     2209  MOL2209     0.2052
  19627  H         72.0770   64.9120   16.4140 H     2209  MOL2209     0.2052
  19628  O         96.3940  166.6560   32.2070 O.3   2210  MOL2210    -0.4105
  19629  H         97.1910  167.1840   31.9930 H     2210  MOL2210     0.2052
  19630  H         96.6840  165.7340   32.4340 H     2210  MOL2210     0.2052
  19631  O        154.8520  181.3040   13.0530 O.3   2211  MOL2211    -0.4105
  19632  H        154.5620  180.4450   13.4240 H     2211  MOL2211     0.2052
  19633  H        155.7190  181.1650   12.5910 H     2211  MOL2211     0.2052
  19634  O         63.0650  176.4090   34.1140 O.3   2212  MOL2212    -0.4105
  19635  H         63.8770  176.6840   33.6390 H     2212  MOL2212     0.2052
  19636  H         62.3020  176.4650   33.4820 H     2212  MOL2212     0.2052
  19637  O         27.3980   93.7270  261.9610 O.3   2213  MOL2213    -0.4105
  19638  H         27.7060   92.9900  261.3930 H     2213  MOL2213     0.2052
  19639  H         26.7880   94.2980  261.4250 H     2213  MOL2213     0.2052
  19640  O         94.2750   59.3960  254.2430 O.3   2214  MOL2214    -0.4105
  19641  H         93.5170   60.0160  254.2140 H     2214  MOL2214     0.2052
  19642  H         93.9190   58.4700  254.2310 H     2214  MOL2214     0.2052
  19643  O        160.9650   66.8160  201.5460 O.3   2215  MOL2215    -0.4105
  19644  H        160.1560   66.2640  201.5610 H     2215  MOL2215     0.2052
  19645  H        161.7230   66.2650  201.8740 H     2215  MOL2215     0.2052
  19646  O        141.5220  118.8170   57.2880 O.3   2216  MOL2216    -0.4105
  19647  H        140.6420  119.2340   57.1830 H     2216  MOL2216     0.2052
  19648  H        141.5260  118.3090   58.1410 H     2216  MOL2216     0.2052
  19649  O         29.1390   71.6190  270.5410 O.3   2217  MOL2217    -0.4105
  19650  H         29.4090   71.5060  269.6050 H     2217  MOL2217     0.2052
  19651  H         28.2100   71.9650  270.5560 H     2217  MOL2217     0.2052
  19652  O        130.8870  147.8660   48.1250 O.3   2218  MOL2218    -0.4105
  19653  H        130.7410  147.1150   47.5120 H     2218  MOL2218     0.2052
  19654  H        130.5950  148.6990   47.6720 H     2218  MOL2218     0.2052
  19655  O        182.4730  106.3810   59.1970 O.3   2219  MOL2219    -0.4105
  19656  H        183.3030  106.8890   59.0820 H     2219  MOL2219     0.2052
  19657  H        182.7100  105.4360   59.3880 H     2219  MOL2219     0.2052
  19658  O         14.4630   93.2190   85.0960 O.3   2220  MOL2220    -0.4105
  19659  H         14.4670   94.0850   85.5550 H     2220  MOL2220     0.2052
  19660  H         15.3970   92.9970   84.8450 H     2220  MOL2220     0.2052
  19661  O        155.8150  138.2580  259.6970 O.3   2221  MOL2221    -0.4105
  19662  H        156.0930  138.1060  260.6240 H     2221  MOL2221     0.2052
  19663  H        155.5640  139.2130  259.6000 H     2221  MOL2221     0.2052
  19664  O         74.2880  146.3260  207.0070 O.3   2222  MOL2222    -0.4105
  19665  H         73.7440  146.7590  207.6970 H     2222  MOL2222     0.2052
  19666  H         75.1080  145.9690  207.4370 H     2222  MOL2222     0.2052
  19667  O        180.2260  101.1610    5.1870 O.3   2223  MOL2223    -0.4105
  19668  H        181.0290  101.7190    5.1220 H     2223  MOL2223     0.2052
  19669  H        180.4940  100.2690    5.5280 H     2223  MOL2223     0.2052
  19670  O        115.9380  155.0300  286.0430 O.3   2224  MOL2224    -0.4105
  19671  H        114.9660  155.1080  285.9450 H     2224  MOL2224     0.2052
  19672  H        116.2910  155.9060  286.3470 H     2224  MOL2224     0.2052
  19673  O         24.3410  192.3940    8.6770 O.3   2225  MOL2225    -0.4105
  19674  H         24.1100  191.6670    9.2920 H     2225  MOL2225     0.2052
  19675  H         24.2690  192.0500    7.7490 H     2225  MOL2225     0.2052
  19676  O        170.5500  188.1130  285.7470 O.3   2226  MOL2226    -0.4105
  19677  H        170.3860  189.0450  285.4940 H     2226  MOL2226     0.2052
  19678  H        171.5310  187.9780  285.8160 H     2226  MOL2226     0.2052
  19679  O          4.7230   94.7480  260.0300 O.3   2227  MOL2227    -0.4105
  19680  H          3.7440   94.7570  260.0560 H     2227  MOL2227     0.2052
  19681  H          5.0100   94.8790  259.0890 H     2227  MOL2227     0.2052
  19682  O        149.5250  109.1380  238.2040 O.3   2228  MOL2228    -0.4105
  19683  H        149.3150  109.8660  237.5810 H     2228  MOL2228     0.2052
  19684  H        149.6850  108.3140  237.6760 H     2228  MOL2228     0.2052
  19685  O        128.8360  139.0600  295.2620 O.3   2229  MOL2229    -0.4105
  19686  H        128.0730  139.3470  294.7190 H     2229  MOL2229     0.2052
  19687  H        129.6550  139.1270  294.7050 H     2229  MOL2229     0.2052
  19688  O        178.3330  132.1180   28.1210 O.3   2230  MOL2230    -0.4105
  19689  H        177.3660  132.1740   28.2730 H     2230  MOL2230     0.2052
  19690  H        178.6860  131.3520   28.6450 H     2230  MOL2230     0.2052
  19691  O         59.3940   79.5730  244.8580 O.3   2231  MOL2231    -0.4105
  19692  H         59.6960   79.1900  245.7070 H     2231  MOL2231     0.2052
  19693  H         58.6290   79.0340  244.5280 H     2231  MOL2231     0.2052
  19694  O          5.2000   35.3620   23.8680 O.3   2232  MOL2232    -0.4105
  19695  H          5.9800   35.2680   24.4550 H     2232  MOL2232     0.2052
  19696  H          5.3560   34.8160   23.0540 H     2232  MOL2232     0.2052
  19697  O          8.5560  101.0740   34.0710 O.3   2233  MOL2233    -0.4105
  19698  H          9.4240  101.3860   33.7430 H     2233  MOL2233     0.2052
  19699  H          8.6550  100.1310   34.3630 H     2233  MOL2233     0.2052
  19700  O        156.1190   69.9310  283.9090 O.3   2234  MOL2234    -0.4105
  19701  H        155.6570   69.6380  284.7230 H     2234  MOL2234     0.2052
  19702  H        156.7940   70.6120  284.1640 H     2234  MOL2234     0.2052
  19703  O        132.1070   55.5690  175.7590 O.3   2235  MOL2235    -0.4105
  19704  H        131.1960   55.3200  175.4960 H     2235  MOL2235     0.2052
  19705  H        132.2930   56.4790  175.4100 H     2235  MOL2235     0.2052
  19706  O         38.7220  135.6990  279.6570 O.3   2236  MOL2236    -0.4105
  19707  H         39.6710  135.7410  279.4140 H     2236  MOL2236     0.2052
  19708  H         38.3090  136.5770  279.4490 H     2236  MOL2236     0.2052
  19709  O         22.9960  153.9120  206.7850 O.3   2237  MOL2237    -0.4105
  19710  H         22.1410  154.3640  206.9490 H     2237  MOL2237     0.2052
  19711  H         23.3760  153.6400  207.6600 H     2237  MOL2237     0.2052
  19712  O        184.7810   77.7260  137.8860 O.3   2238  MOL2238    -0.4105
  19713  H        185.6960   77.3750  137.8750 H     2238  MOL2238     0.2052
  19714  H        184.1540   76.9590  137.8350 H     2238  MOL2238     0.2052
  19715  O        108.3690    3.9480  239.6330 O.3   2239  MOL2239    -0.4105
  19716  H        107.9780    3.9560  240.5320 H     2239  MOL2239     0.2052
  19717  H        109.3550    4.0120  239.7220 H     2239  MOL2239     0.2052
  19718  O         48.8180   82.3950  232.4910 O.3   2240  MOL2240    -0.4105
  19719  H         48.2390   82.5380  231.7130 H     2240  MOL2240     0.2052
  19720  H         49.7580   82.5430  232.2110 H     2240  MOL2240     0.2052
  19721  O         33.2930   90.3060  131.3990 O.3   2241  MOL2241    -0.4105
  19722  H         33.6890   89.4090  131.3850 H     2241  MOL2241     0.2052
  19723  H         32.3820   90.2370  131.7860 H     2241  MOL2241     0.2052
  19724  O         32.8340   94.1150   46.1800 O.3   2242  MOL2242    -0.4105
  19725  H         33.2360   94.0540   47.0720 H     2242  MOL2242     0.2052
  19726  H         32.1150   94.7990   46.2110 H     2242  MOL2242     0.2052
  19727  O         56.2730   80.5720  247.3070 O.3   2243  MOL2243    -0.4105
  19728  H         55.3240   80.3310  247.2590 H     2243  MOL2243     0.2052
  19729  H         56.3390   81.5560  247.4140 H     2243  MOL2243     0.2052
  19730  O        171.9100  127.8920  182.4960 O.3   2244  MOL2244    -0.4105
  19731  H        172.0590  127.4940  183.3800 H     2244  MOL2244     0.2052
  19732  H        171.1550  127.4150  182.0640 H     2244  MOL2244     0.2052
  19733  O         84.2980  121.4800  218.4230 O.3   2245  MOL2245    -0.4105
  19734  H         84.1540  121.7460  219.3550 H     2245  MOL2245     0.2052
  19735  H         84.4520  120.5000  218.4000 H     2245  MOL2245     0.2052
  19736  O        196.6760   36.2690  298.5230 O.3   2246  MOL2246    -0.4105
  19737  H        197.1820   36.6860  299.2510 H     2246  MOL2246     0.2052
  19738  H        196.8110   36.8090  297.7010 H     2246  MOL2246     0.2052
  19739  O         72.6250   39.1860  113.5780 O.3   2247  MOL2247    -0.4105
  19740  H         72.6790   40.1600  113.4840 H     2247  MOL2247     0.2052
  19741  H         73.4720   38.8660  113.9840 H     2247  MOL2247     0.2052
  19742  O        126.1960   70.1690    8.1640 O.3   2248  MOL2248    -0.4105
  19743  H        126.9550   69.5650    8.3040 H     2248  MOL2248     0.2052
  19744  H        125.4870   69.6690    7.6820 H     2248  MOL2248     0.2052
  19745  O         17.6090  115.8680    0.8990 O.3   2249  MOL2249    -0.4105
  19746  H         18.2670  115.5750    0.2350 H     2249  MOL2249     0.2052
  19747  H         16.9410  116.4430    0.4420 H     2249  MOL2249     0.2052
  19748  O         24.8610   29.1770  202.3750 O.3   2250  MOL2250    -0.4105
  19749  H         25.5890   29.7970  202.1610 H     2250  MOL2250     0.2052
  19750  H         24.0400   29.7080  202.5430 H     2250  MOL2250     0.2052
  19751  O        106.9970   67.6060    0.0200 O.3   2251  MOL2251    -0.4105
  19752  H        107.8640   67.8370    0.4150 H     2251  MOL2251     0.2052
  19753  H        106.9000   66.6180    0.0400 H     2251  MOL2251     0.2052
  19754  O        122.8730   93.8990  264.7320 O.3   2252  MOL2252    -0.4105
  19755  H        122.8180   93.2970  265.5030 H     2252  MOL2252     0.2052
  19756  H        121.9500   94.1510  264.4680 H     2252  MOL2252     0.2052
  19757  O         55.7230  111.3580  297.1300 O.3   2253  MOL2253    -0.4105
  19758  H         55.7160  112.0940  296.4830 H     2253  MOL2253     0.2052
  19759  H         55.9100  110.5160  296.6410 H     2253  MOL2253     0.2052
  19760  O         16.9470   66.8300  200.1730 O.3   2254  MOL2254    -0.4105
  19761  H         16.4230   67.1980  200.9150 H     2254  MOL2254     0.2052
  19762  H         16.8390   65.8440  200.1760 H     2254  MOL2254     0.2052
  19763  O        120.4220  159.5940  149.6920 O.3   2255  MOL2255    -0.4105
  19764  H        119.9620  160.2660  150.2380 H     2255  MOL2255     0.2052
  19765  H        119.7370  159.0040  149.2840 H     2255  MOL2255     0.2052
  19766  O        151.8090  174.3400  104.1350 O.3   2256  MOL2256    -0.4105
  19767  H        151.1550  175.0410  104.3370 H     2256  MOL2256     0.2052
  19768  H        152.6720  174.7760  103.9120 H     2256  MOL2256     0.2052
  19769  O          7.0600  116.6610  106.2490 O.3   2257  MOL2257    -0.4105
  19770  H          6.8510  117.5940  106.0370 H     2257  MOL2257     0.2052
  19771  H          6.2260  116.1300  106.1670 H     2257  MOL2257     0.2052
  19772  O        164.8910   58.4390   64.2550 O.3   2258  MOL2258    -0.4105
  19773  H        164.8110   57.4890   64.0290 H     2258  MOL2258     0.2052
  19774  H        165.1930   58.9270   63.4450 H     2258  MOL2258     0.2052
  19775  O        132.5560   68.2210  260.4520 O.3   2259  MOL2259    -0.4105
  19776  H        131.9320   67.5220  260.7380 H     2259  MOL2259     0.2052
  19777  H        132.0610   69.0790  260.4050 H     2259  MOL2259     0.2052
  19778  O         56.0950   44.2170  252.1720 O.3   2260  MOL2260    -0.4105
  19779  H         56.8350   44.5300  251.6100 H     2260  MOL2260     0.2052
  19780  H         56.0010   43.2380  252.0440 H     2260  MOL2260     0.2052
  19781  O        128.3850   21.5550   96.2460 O.3   2261  MOL2261    -0.4105
  19782  H        128.3670   20.6690   95.8270 H     2261  MOL2261     0.2052
  19783  H        127.6460   21.6010   96.9070 H     2261  MOL2261     0.2052
  19784  O         32.5500  188.5860  143.6990 O.3   2262  MOL2262    -0.4105
  19785  H         32.7300  187.6760  144.0180 H     2262  MOL2262     0.2052
  19786  H         33.3510  189.1420  143.8810 H     2262  MOL2262     0.2052
  19787  O         15.5160   87.1980  275.4470 O.3   2263  MOL2263    -0.4105
  19788  H         15.0190   87.6000  274.7050 H     2263  MOL2263     0.2052
  19789  H         16.1420   86.5250  275.0730 H     2263  MOL2263     0.2052
  19790  O        147.2650   17.9680   46.8040 O.3   2264  MOL2264    -0.4105
  19791  H        146.4070   17.7470   46.3840 H     2264  MOL2264     0.2052
  19792  H        147.1520   18.8100   47.3160 H     2264  MOL2264     0.2052
  19793  O        145.3830   82.4670  288.7460 O.3   2265  MOL2265    -0.4105
  19794  H        144.7780   83.2310  288.8510 H     2265  MOL2265     0.2052
  19795  H        146.3030   82.8150  288.6160 H     2265  MOL2265     0.2052
  19796  O        193.8140   18.9260  227.7320 O.3   2266  MOL2266    -0.4105
  19797  H        193.8880   18.8110  226.7620 H     2266  MOL2266     0.2052
  19798  H        194.0440   19.8660  227.9520 H     2266  MOL2266     0.2052
  19799  O        131.9330   85.0200   18.2360 O.3   2267  MOL2267    -0.4105
  19800  H        132.8950   85.0610   18.0520 H     2267  MOL2267     0.2052
  19801  H        131.7380   84.1510   18.6740 H     2267  MOL2267     0.2052
  19802  O        190.3030   83.4340  188.9450 O.3   2268  MOL2268    -0.4105
  19803  H        189.7930   82.7950  189.4860 H     2268  MOL2268     0.2052
  19804  H        190.0900   84.3490  189.2630 H     2268  MOL2268     0.2052
  19805  O         81.8060  135.9840  220.5930 O.3   2269  MOL2269    -0.4105
  19806  H         80.9230  135.8360  220.1930 H     2269  MOL2269     0.2052
  19807  H         81.8500  135.4770  221.4440 H     2269  MOL2269     0.2052
  19808  O        160.7460  129.0060  117.2980 O.3   2270  MOL2270    -0.4105
  19809  H        161.7050  128.8020  117.2830 H     2270  MOL2270     0.2052
  19810  H        160.2500  128.1840  117.0500 H     2270  MOL2270     0.2052
  19811  O          8.7910  195.3130  220.7760 O.3   2271  MOL2271    -0.4105
  19812  H          9.4790  194.6690  221.0450 H     2271  MOL2271     0.2052
  19813  H          9.1820  196.2240  220.8210 H     2271  MOL2271     0.2052
  19814  O        102.4910  101.3670  231.0550 O.3   2272  MOL2272    -0.4105
  19815  H        102.2600  100.9750  231.9230 H     2272  MOL2272     0.2052
  19816  H        103.4400  101.1510  230.8590 H     2272  MOL2272     0.2052
  19817  O        181.4100   68.6290  253.2830 O.3   2273  MOL2273    -0.4105
  19818  H        181.7780   69.5360  253.3400 H     2273  MOL2273     0.2052
  19819  H        182.1630   67.9850  253.3180 H     2273  MOL2273     0.2052
  19820  O        154.6160  124.6740   59.9040 O.3   2274  MOL2274    -0.4105
  19821  H        154.4910  123.8110   59.4570 H     2274  MOL2274     0.2052
  19822  H        155.5430  124.7100   60.2550 H     2274  MOL2274     0.2052
  19823  O        172.8360    0.5480   21.3310 O.3   2275  MOL2275    -0.4105
  19824  H        173.0000    1.3010   21.9360 H     2275  MOL2275     0.2052
  19825  H        172.6160    0.9120   20.4340 H     2275  MOL2275     0.2052
  19826  O         39.4780   94.1510   83.4460 O.3   2276  MOL2276    -0.4105
  19827  H         39.2490   93.5000   84.1420 H     2276  MOL2276     0.2052
  19828  H         39.1730   93.7910   82.5730 H     2276  MOL2276     0.2052
  19829  O         19.2020  167.9030   65.7800 O.3   2277  MOL2277    -0.4105
  19830  H         19.8250  168.5770   66.1240 H     2277  MOL2277     0.2052
  19831  H         19.2840  167.0900   66.3420 H     2277  MOL2277     0.2052
  19832  O         22.9780   38.0600   87.9620 O.3   2278  MOL2278    -0.4105
  19833  H         22.4750   38.8430   87.6540 H     2278  MOL2278     0.2052
  19834  H         23.9170   38.1530   87.6550 H     2278  MOL2278     0.2052
  19835  O        111.6040  187.1020   65.8270 O.3   2279  MOL2279    -0.4105
  19836  H        111.4870  186.1350   65.7220 H     2279  MOL2279     0.2052
  19837  H        112.5280  187.3350   65.5500 H     2279  MOL2279     0.2052
  19838  O        167.4110   86.6400  159.6490 O.3   2280  MOL2280    -0.4105
  19839  H        167.7460   85.7220  159.5820 H     2280  MOL2280     0.2052
  19840  H        167.0400   86.7690  160.5610 H     2280  MOL2280     0.2052
  19841  O        138.1220  142.7700  239.9060 O.3   2281  MOL2281    -0.4105
  19842  H        137.5470  143.1940  240.5760 H     2281  MOL2281     0.2052
  19843  H        137.6550  141.9640  239.5620 H     2281  MOL2281     0.2052
  19844  O         85.0080  132.4800  251.9910 O.3   2282  MOL2282    -0.4105
  19845  H         85.8070  132.0590  251.6110 H     2282  MOL2282     0.2052
  19846  H         85.0330  133.4470  251.7720 H     2282  MOL2282     0.2052
  19847  O          8.4960   31.2110  123.4910 O.3   2283  MOL2283    -0.4105
  19848  H          8.0190   31.8540  122.9270 H     2283  MOL2283     0.2052
  19849  H          9.4060   31.0850  123.1170 H     2283  MOL2283     0.2052
  19850  O        174.5240   83.2100  127.1020 O.3   2284  MOL2284    -0.4105
  19851  H        173.9200   83.8910  126.7370 H     2284  MOL2284     0.2052
  19852  H        174.6240   82.4900  126.4260 H     2284  MOL2284     0.2052
  19853  O        184.4290   56.5570   21.3340 O.3   2285  MOL2285    -0.4105
  19854  H        184.0030   56.5060   20.4530 H     2285  MOL2285     0.2052
  19855  H        185.3330   56.9500   21.2190 H     2285  MOL2285     0.2052
  19856  O         33.8000  142.3520    8.6950 O.3   2286  MOL2286    -0.4105
  19857  H         34.5680  142.0880    9.2440 H     2286  MOL2286     0.2052
  19858  H         33.5250  143.2670    8.9660 H     2286  MOL2286     0.2052
  19859  O         68.3560   80.4810   55.9800 O.3   2287  MOL2287    -0.4105
  19860  H         68.3210   79.5510   55.6730 H     2287  MOL2287     0.2052
  19861  H         67.6350   80.6150   56.6490 H     2287  MOL2287     0.2052
  19862  O         82.5870   46.9920  286.0460 O.3   2288  MOL2288    -0.4105
  19863  H         83.0780   47.5340  286.6970 H     2288  MOL2288     0.2052
  19864  H         82.9770   47.1530  285.1480 H     2288  MOL2288     0.2052
  19865  O         49.5660  187.0860   88.3790 O.3   2289  MOL2289    -0.4105
  19866  H         49.1590  187.9770   88.4120 H     2289  MOL2289     0.2052
  19867  H         49.0450  186.4850   88.9720 H     2289  MOL2289     0.2052
  19868  O        138.8680   68.7550   37.3830 O.3   2290  MOL2290    -0.4105
  19869  H        139.7400   69.0360   37.7310 H     2290  MOL2290     0.2052
  19870  H        138.2200   69.4910   37.5360 H     2290  MOL2290     0.2052
  19871  O          6.1760  111.8220  227.2390 O.3   2291  MOL2291    -0.4105
  19872  H          6.2590  112.6330  227.7840 H     2291  MOL2291     0.2052
  19873  H          5.2510  111.4760  227.3360 H     2291  MOL2291     0.2052
  19874  O         64.3000   85.9840  169.5490 O.3   2292  MOL2292    -0.4105
  19875  H         64.8750   85.4640  168.9490 H     2292  MOL2292     0.2052
  19876  H         64.7900   86.8050  169.8140 H     2292  MOL2292     0.2052
  19877  O         54.5820  152.2560  214.0550 O.3   2293  MOL2293    -0.4105
  19878  H         54.8100  153.1940  213.8840 H     2293  MOL2293     0.2052
  19879  H         55.1620  151.9250  214.7900 H     2293  MOL2293     0.2052
  19880  O        102.3050  119.8400  192.9360 O.3   2294  MOL2294    -0.4105
  19881  H        102.5600  118.9040  193.0710 H     2294  MOL2294     0.2052
  19882  H        101.5030  119.8630  192.3520 H     2294  MOL2294     0.2052
  19883  O        170.5240   70.9440  283.9150 O.3   2295  MOL2295    -0.4105
  19884  H        170.4840   71.9230  283.9370 H     2295  MOL2295     0.2052
  19885  H        171.4750   70.6740  283.8340 H     2295  MOL2295     0.2052
  19886  O         84.5010  158.3110  264.9510 O.3   2296  MOL2296    -0.4105
  19887  H         84.0650  159.1880  264.9200 H     2296  MOL2296     0.2052
  19888  H         83.9330  157.6640  264.4560 H     2296  MOL2296     0.2052
  19889  O         90.9430    7.3380  284.0990 O.3   2297  MOL2297    -0.4105
  19890  H         90.3740    6.6090  283.7750 H     2297  MOL2297     0.2052
  19891  H         91.8880    7.1010  283.9140 H     2297  MOL2297     0.2052
  19892  O         27.7710  165.5640  109.0250 O.3   2298  MOL2298    -0.4105
  19893  H         27.5080  166.4430  108.6790 H     2298  MOL2298     0.2052
  19894  H         28.5810  165.2670  108.5350 H     2298  MOL2298     0.2052
  19895  O         54.4360  172.5130  257.1370 O.3   2299  MOL2299    -0.4105
  19896  H         54.2730  172.9120  258.0170 H     2299  MOL2299     0.2052
  19897  H         53.8780  172.9910  256.4710 H     2299  MOL2299     0.2052
  19898  O        194.6590   12.5010   54.4750 O.3   2300  MOL2300    -0.4105
  19899  H        193.9460   13.1730   54.4990 H     2300  MOL2300     0.2052
  19900  H        195.2600   12.7140   53.7140 H     2300  MOL2300     0.2052
  19901  O        176.1700  134.9150   91.2590 O.3   2301  MOL2301    -0.4105
  19902  H        176.3030  135.8680   91.0740 H     2301  MOL2301     0.2052
  19903  H        176.9040  134.6090   91.8530 H     2301  MOL2301     0.2052
  19904  O        158.4800  111.3730  262.4430 O.3   2302  MOL2302    -0.4105
  19905  H        157.5960  110.9620  262.3370 H     2302  MOL2302     0.2052
  19906  H        158.3530  112.3130  262.7340 H     2302  MOL2302     0.2052
  19907  O        169.8390   12.3810   81.6790 O.3   2303  MOL2303    -0.4105
  19908  H        170.8090   12.5200   81.6710 H     2303  MOL2303     0.2052
  19909  H        169.6120   11.7420   80.9540 H     2303  MOL2303     0.2052
  19910  O        108.0000   92.9750  249.7140 O.3   2304  MOL2304    -0.4105
  19911  H        108.2430   92.0260  249.7170 H     2304  MOL2304     0.2052
  19912  H        108.8360   93.5100  249.7050 H     2304  MOL2304     0.2052
  19913  O        165.1540  129.4100  121.3460 O.3   2305  MOL2305    -0.4105
  19914  H        164.4940  129.1610  120.6660 H     2305  MOL2305     0.2052
  19915  H        165.5020  128.5770  121.7600 H     2305  MOL2305     0.2052
  19916  O         46.7680   90.2760  293.2090 O.3   2306  MOL2306    -0.4105
  19917  H         46.5490   89.5620  293.8430 H     2306  MOL2306     0.2052
  19918  H         46.5540   91.1460  293.6350 H     2306  MOL2306     0.2052
  19919  O        159.6540   69.0110   58.3740 O.3   2307  MOL2307    -0.4105
  19920  H        160.2950   68.2740   58.2910 H     2307  MOL2307     0.2052
  19921  H        160.1570   69.8650   58.3350 H     2307  MOL2307     0.2052
  19922  O         75.2590  105.7400  261.7230 O.3   2308  MOL2308    -0.4105
  19923  H         75.2290  105.0830  260.9960 H     2308  MOL2308     0.2052
  19924  H         74.4550  105.6120  262.2900 H     2308  MOL2308     0.2052
  19925  O        197.8150  137.3040  154.0710 O.3   2309  MOL2309    -0.4105
  19926  H        197.6720  137.9770  153.3720 H     2309  MOL2309     0.2052
  19927  H        198.6540  137.5290  154.5510 H     2309  MOL2309     0.2052
  19928  O         78.1380  133.5610  211.7770 O.3   2310  MOL2310    -0.4105
  19929  H         78.8620  134.1080  212.1460 H     2310  MOL2310     0.2052
  19930  H         77.3980  134.1650  211.5080 H     2310  MOL2310     0.2052
  19931  O         26.3300  124.0730   57.5530 O.3   2311  MOL2311    -0.4105
  19932  H         26.1110  124.6030   56.7580 H     2311  MOL2311     0.2052
  19933  H         27.0110  124.5680   58.0780 H     2311  MOL2311     0.2052
  19934  O        161.7470  184.8030   82.5810 O.3   2312  MOL2312    -0.4105
  19935  H        161.7180  183.8860   82.2360 H     2312  MOL2312     0.2052
  19936  H        160.8540  185.0240   82.9510 H     2312  MOL2312     0.2052
  19937  O          8.3360   54.9510  221.8420 O.3   2313  MOL2313    -0.4105
  19938  H          9.0340   55.0030  221.1560 H     2313  MOL2313     0.2052
  19939  H          8.6500   55.4490  222.6410 H     2313  MOL2313     0.2052
  19940  O          4.8920  171.6530  141.1280 O.3   2314  MOL2314    -0.4105
  19941  H          5.2610  172.5600  141.1620 H     2314  MOL2314     0.2052
  19942  H          5.6480  171.0100  141.1170 H     2314  MOL2314     0.2052
  19943  O        149.2830   62.7210  274.9940 O.3   2315  MOL2315    -0.4105
  19944  H        149.6760   62.9250  274.1200 H     2315  MOL2315     0.2052
  19945  H        149.9610   62.2380  275.5340 H     2315  MOL2315     0.2052
  19946  O          1.9980  189.4680   31.7670 O.3   2316  MOL2316    -0.4105
  19947  H          2.3800  189.3820   30.8680 H     2316  MOL2316     0.2052
  19948  H          1.0200  189.3170   31.7050 H     2316  MOL2316     0.2052
  19949  O         15.1380  182.4150  161.0080 O.3   2317  MOL2317    -0.4105
  19950  H         15.1420  183.3550  160.7310 H     2317  MOL2317     0.2052
  19951  H         15.1740  181.8510  160.1930 H     2317  MOL2317     0.2052
  19952  O         79.6120  170.1950  285.6300 O.3   2318  MOL2318    -0.4105
  19953  H         80.4670  169.7300  285.5190 H     2318  MOL2318     0.2052
  19954  H         79.8010  171.1370  285.8780 H     2318  MOL2318     0.2052
  19955  O        101.6800   45.7730  103.7400 O.3   2319  MOL2319    -0.4105
  19956  H        101.2800   45.0210  103.2560 H     2319  MOL2319     0.2052
  19957  H        101.9190   45.4620  104.6520 H     2319  MOL2319     0.2052
  19958  O         94.5250   68.7620  187.2950 O.3   2320  MOL2320    -0.4105
  19959  H         94.5940   67.7910  187.4080 H     2320  MOL2320     0.2052
  19960  H         95.2460   69.0550  186.6790 H     2320  MOL2320     0.2052
  19961  O        124.3410   17.5610   60.6860 O.3   2321  MOL2321    -0.4105
  19962  H        124.2820   18.1260   59.8870 H     2321  MOL2321     0.2052
  19963  H        125.1970   17.0600   60.6490 H     2321  MOL2321     0.2052
  19964  O        178.6810    5.8490   24.1090 O.3   2322  MOL2322    -0.4105
  19965  H        178.6010    5.7880   25.0840 H     2322  MOL2322     0.2052
  19966  H        178.8950    4.9460   23.7580 H     2322  MOL2322     0.2052
  19967  O         81.6100   72.6680  269.7670 O.3   2323  MOL2323    -0.4105
  19968  H         81.4070   72.3350  270.6660 H     2323  MOL2323     0.2052
  19969  H         82.1770   71.9960  269.3070 H     2323  MOL2323     0.2052
  19970  O         95.2510  153.8920  210.1710 O.3   2324  MOL2324    -0.4105
  19971  H         95.1160  154.6940  209.6230 H     2324  MOL2324     0.2052
  19972  H         96.1890  153.8930  210.4970 H     2324  MOL2324     0.2052
  19973  O         48.3100  112.2950  258.5060 O.3   2325  MOL2325    -0.4105
  19974  H         47.5810  112.6510  257.9560 H     2325  MOL2325     0.2052
  19975  H         49.1190  112.8460  258.3430 H     2325  MOL2325     0.2052
  19976  O         87.0140  148.1180  261.7740 O.3   2326  MOL2326    -0.4105
  19977  H         87.8230  147.5660  261.8150 H     2326  MOL2326     0.2052
  19978  H         86.2420  147.5590  262.0490 H     2326  MOL2326     0.2052
  19979  O        158.5360  128.3110  123.9200 O.3   2327  MOL2327    -0.4105
  19980  H        159.2250  127.8450  124.4370 H     2327  MOL2327     0.2052
  19981  H        158.1080  127.6560  123.3100 H     2327  MOL2327     0.2052
  19982  O          8.2460   72.1080  176.9150 O.3   2328  MOL2328    -0.4105
  19983  H          7.6650   71.3340  177.0700 H     2328  MOL2328     0.2052
  19984  H          8.8040   71.9210  176.1150 H     2328  MOL2328     0.2052
  19985  O        190.4370  174.5100  135.0800 O.3   2329  MOL2329    -0.4105
  19986  H        191.3650  174.6380  134.7930 H     2329  MOL2329     0.2052
  19987  H        190.1310  175.3450  135.5210 H     2329  MOL2329     0.2052
  19988  O         45.0420   58.8050  226.1500 O.3   2330  MOL2330    -0.4105
  19989  H         44.2610   58.2180  226.0730 H     2330  MOL2330     0.2052
  19990  H         45.8350   58.3110  225.8170 H     2330  MOL2330     0.2052
  19991  O        195.9910  136.2990  130.7200 O.3   2331  MOL2331    -0.4105
  19992  H        195.0840  136.6710  130.6870 H     2331  MOL2331     0.2052
  19993  H        196.6150  136.9690  130.3390 H     2331  MOL2331     0.2052
  19994  O         63.0680   14.3500   94.3950 O.3   2332  MOL2332    -0.4105
  19995  H         62.3720   14.4940   93.7210 H     2332  MOL2332     0.2052
  19996  H         63.6910   13.6560   94.0560 H     2332  MOL2332     0.2052
  19997  O         48.1720  145.7420   60.4880 O.3   2333  MOL2333    -0.4105
  19998  H         48.0700  144.9050   59.9890 H     2333  MOL2333     0.2052
  19999  H         48.6660  145.5450   61.3260 H     2333  MOL2333     0.2052
  20000  O         18.1140   41.6150  264.3280 O.3   2334  MOL2334    -0.4105
  20001  H         18.2460   42.0220  263.4460 H     2334  MOL2334     0.2052
  20002  H         18.9590   41.7040  264.8400 H     2334  MOL2334     0.2052
  20003  O        166.6680  101.2480  185.9270 O.3   2335  MOL2335    -0.4105
  20004  H        166.0720  101.5690  186.6350 H     2335  MOL2335     0.2052
  20005  H        167.2480  102.0020  185.6440 H     2335  MOL2335     0.2052
  20006  O        139.2730  149.8240   72.5720 O.3   2336  MOL2336    -0.4105
  20007  H        139.2260  150.7050   72.9980 H     2336  MOL2336     0.2052
  20008  H        138.4160  149.3520   72.7410 H     2336  MOL2336     0.2052
  20009  O        173.0050  109.7600  294.5620 O.3   2337  MOL2337    -0.4105
  20010  H        172.1760  109.3080  294.8230 H     2337  MOL2337     0.2052
  20011  H        173.4700  110.0570  295.3870 H     2337  MOL2337     0.2052
  20012  O         47.7760   78.5680   90.3770 O.3   2338  MOL2338    -0.4105
  20013  H         47.7500   77.5890   90.3880 H     2338  MOL2338     0.2052
  20014  H         48.7260   78.8530   90.4010 H     2338  MOL2338     0.2052
  20015  O         96.0490  115.9830   65.3590 O.3   2339  MOL2339    -0.4105
  20016  H         95.4490  115.9370   66.1320 H     2339  MOL2339     0.2052
  20017  H         96.9270  115.6050   65.6250 H     2339  MOL2339     0.2052
  20018  O        141.6510   34.2400  165.1680 O.3   2340  MOL2340    -0.4105
  20019  H        141.9180   33.4640  165.7040 H     2340  MOL2340     0.2052
  20020  H        141.3530   34.9570  165.7860 H     2340  MOL2340     0.2052
  20021  O         50.9510   55.8970  238.1750 O.3   2341  MOL2341    -0.4105
  20022  H         51.8360   56.2950  238.0360 H     2341  MOL2341     0.2052
  20023  H         50.2680   56.6020  238.0310 H     2341  MOL2341     0.2052
  20024  O        102.6070  105.0230  298.7430 O.3   2342  MOL2342    -0.4105
  20025  H        102.2790  104.1760  299.1100 H     2342  MOL2342     0.2052
  20026  H        102.4710  105.0080  297.7600 H     2342  MOL2342     0.2052
  20027  O        178.4430   80.6610  281.7510 O.3   2343  MOL2343    -0.4105
  20028  H        177.9300   80.5930  280.9190 H     2343  MOL2343     0.2052
  20029  H        178.3860   81.5970  282.0750 H     2343  MOL2343     0.2052
  20030  O          5.5020  108.1330  220.7840 O.3   2344  MOL2344    -0.4105
  20031  H          6.4630  108.3240  220.8090 H     2344  MOL2344     0.2052
  20032  H          5.0140  108.9670  221.0110 H     2344  MOL2344     0.2052
  20033  O        168.6030  177.5070  177.4260 O.3   2345  MOL2345    -0.4105
  20034  H        169.4430  177.6790  177.9010 H     2345  MOL2345     0.2052
  20035  H        167.9410  178.1900  177.7080 H     2345  MOL2345     0.2052
  20036  O         91.7610  105.5670    3.2880 O.3   2346  MOL2346    -0.4105
  20037  H         92.0020  106.3400    3.8400 H     2346  MOL2346     0.2052
  20038  H         90.8600  105.2570    3.5640 H     2346  MOL2346     0.2052
  20039  O         88.8360   69.3390   12.5360 O.3   2347  MOL2347    -0.4105
  20040  H         88.9510   69.1650   13.4940 H     2347  MOL2347     0.2052
  20041  H         88.5250   70.2750   12.4260 H     2347  MOL2347     0.2052
  20042  O        161.6140    7.1650   18.0700 O.3   2348  MOL2348    -0.4105
  20043  H        161.8460    6.8560   18.9710 H     2348  MOL2348     0.2052
  20044  H        161.8380    8.1300   18.0060 H     2348  MOL2348     0.2052
  20045  O        170.1800  153.9560  284.3630 O.3   2349  MOL2349    -0.4105
  20046  H        170.9770  153.4240  284.5700 H     2349  MOL2349     0.2052
  20047  H        170.0990  154.6720  285.0450 H     2349  MOL2349     0.2052
  20048  O         74.9530  135.0470   48.5020 O.3   2350  MOL2350    -0.4105
  20049  H         73.9890  135.2180   48.5550 H     2350  MOL2350     0.2052
  20050  H         75.2780  135.3770   47.6250 H     2350  MOL2350     0.2052
  20051  O        153.6990   11.1420  131.6680 O.3   2351  MOL2351    -0.4105
  20052  H        153.2420   11.4790  130.8690 H     2351  MOL2351     0.2052
  20053  H        153.0120   10.9170  132.3470 H     2351  MOL2351     0.2052
  20054  O        159.1770  104.5700  180.0770 O.3   2352  MOL2352    -0.4105
  20055  H        158.5260  104.0660  179.5460 H     2352  MOL2352     0.2052
  20056  H        159.4060  105.4000  179.5820 H     2352  MOL2352     0.2052
  20057  O        162.0820   48.1370  238.9180 O.3   2353  MOL2353    -0.4105
  20058  H        162.5480   47.3090  238.6790 H     2353  MOL2353     0.2052
  20059  H        162.6840   48.6770  239.4930 H     2353  MOL2353     0.2052
  20060  O         94.8450  129.6550   -0.0120 O.3   2354  MOL2354    -0.4105
  20061  H         94.8250  129.1730    0.8410 H     2354  MOL2354     0.2052
  20062  H         94.1830  130.3930    0.0340 H     2354  MOL2354     0.2052
  20063  O        165.7610   22.4460  268.2840 O.3   2355  MOL2355    -0.4105
  20064  H        166.0560   21.5300  268.0970 H     2355  MOL2355     0.2052
  20065  H        165.5500   22.5120  269.2520 H     2355  MOL2355     0.2052
  20066  O          4.7820  199.1340  103.0280 O.3   2356  MOL2356    -0.4105
  20067  H          5.3360  199.2230  102.2240 H     2356  MOL2356     0.2052
  20068  H          5.0150  199.8730  103.6480 H     2356  MOL2356     0.2052
  20069  O         27.9410   64.7700  132.4430 O.3   2357  MOL2357    -0.4105
  20070  H         27.5590   64.0140  132.9370 H     2357  MOL2357     0.2052
  20071  H         27.2190   65.4290  132.2770 H     2357  MOL2357     0.2052
  20072  O        115.7450   78.8710  286.5120 O.3   2358  MOL2358    -0.4105
  20073  H        115.9560   78.9070  285.5550 H     2358  MOL2358     0.2052
  20074  H        115.4040   79.7610  286.7880 H     2358  MOL2358     0.2052
  20075  O        129.9500  135.3780  245.0890 O.3   2359  MOL2359    -0.4105
  20076  H        129.9920  134.5870  244.5120 H     2359  MOL2359     0.2052
  20077  H        130.3120  135.1330  245.9800 H     2359  MOL2359     0.2052
  20078  O        126.9050  183.4730  163.5300 O.3   2360  MOL2360    -0.4105
  20079  H        126.3670  182.6540  163.5410 H     2360  MOL2360     0.2052
  20080  H        127.8630  183.2140  163.5250 H     2360  MOL2360     0.2052
  20081  O        174.6830  188.7770   20.1740 O.3   2361  MOL2361    -0.4105
  20082  H        173.7650  188.4760   20.0080 H     2361  MOL2361     0.2052
  20083  H        175.2430  187.9790   20.3590 H     2361  MOL2361     0.2052
  20084  O         10.4780   96.6230   78.1690 O.3   2362  MOL2362    -0.4105
  20085  H         10.0230   96.0250   77.5400 H     2362  MOL2362     0.2052
  20086  H         10.3620   97.5550   77.8500 H     2362  MOL2362     0.2052
  20087  O         84.8210   32.1480  212.7050 O.3   2363  MOL2363    -0.4105
  20088  H         83.9510   32.2160  213.1510 H     2363  MOL2363     0.2052
  20089  H         85.0300   31.1870  212.5760 H     2363  MOL2363     0.2052
  20090  O        188.2980   20.8250  245.6050 O.3   2364  MOL2364    -0.4105
  20091  H        187.8860   20.5790  244.7500 H     2364  MOL2364     0.2052
  20092  H        187.5950   20.8110  246.3050 H     2364  MOL2364     0.2052
  20093  O        112.1060  180.4020  259.6680 O.3   2365  MOL2365    -0.4105
  20094  H        111.3960  179.7320  259.5850 H     2365  MOL2365     0.2052
  20095  H        111.7650  181.2610  259.3060 H     2365  MOL2365     0.2052
  20096  O        142.4030   44.9560  138.8570 O.3   2366  MOL2366    -0.4105
  20097  H        143.0220   44.9520  138.0970 H     2366  MOL2366     0.2052
  20098  H        141.6460   45.5590  138.6370 H     2366  MOL2366     0.2052
  20099  O        103.9990   95.4920  277.9350 O.3   2367  MOL2367    -0.4105
  20100  H        103.9880   94.7350  277.3120 H     2367  MOL2367     0.2052
  20101  H        104.9370   95.8020  278.0290 H     2367  MOL2367     0.2052
  20102  O        104.8490   19.4260  165.9640 O.3   2368  MOL2368    -0.4105
  20103  H        103.9270   19.7410  165.8570 H     2368  MOL2368     0.2052
  20104  H        105.4490   20.2160  165.9610 H     2368  MOL2368     0.2052
  20105  O         41.5530  127.7380  134.5910 O.3   2369  MOL2369    -0.4105
  20106  H         42.1840  126.9960  134.6970 H     2369  MOL2369     0.2052
  20107  H         40.6620  127.3590  134.3730 H     2369  MOL2369     0.2052
  20108  O        106.2570   94.6270  230.0370 O.3   2370  MOL2370    -0.4105
  20109  H        105.5770   95.3230  230.1550 H     2370  MOL2370     0.2052
  20110  H        107.1510   95.0570  230.0790 H     2370  MOL2370     0.2052
  20111  O        141.9110  135.5940   15.8820 O.3   2371  MOL2371    -0.4105
  20112  H        141.6730  136.5410   15.8050 H     2371  MOL2371     0.2052
  20113  H        142.8360  135.5340   16.2370 H     2371  MOL2371     0.2052
  20114  O        144.6140  123.1780  228.2750 O.3   2372  MOL2372    -0.4105
  20115  H        144.2700  123.9240  228.8090 H     2372  MOL2372     0.2052
  20116  H        144.7360  123.4930  227.3430 H     2372  MOL2372     0.2052
  20117  O         24.8450   12.6060  204.0870 O.3   2373  MOL2373    -0.4105
  20118  H         24.9900   11.8590  204.7040 H     2373  MOL2373     0.2052
  20119  H         24.8950   13.4510  204.6040 H     2373  MOL2373     0.2052
  20120  O         96.4130  183.4540   45.0830 O.3   2374  MOL2374    -0.4105
  20121  H         96.9480  182.6580   45.2860 H     2374  MOL2374     0.2052
  20122  H         97.0180  184.1480   44.7130 H     2374  MOL2374     0.2052
  20123  O        153.2370   54.6920  218.5250 O.3   2375  MOL2375    -0.4105
  20124  H        154.2170   54.7300  218.5330 H     2375  MOL2375     0.2052
  20125  H        152.9580   53.8050  218.8690 H     2375  MOL2375     0.2052
  20126  O          8.1970    3.5780  179.6930 O.3   2376  MOL2376    -0.4105
  20127  H          7.6620    2.7740  179.8560 H     2376  MOL2376     0.2052
  20128  H          9.1560    3.3340  179.7640 H     2376  MOL2376     0.2052
  20129  O         54.7130   71.7700  182.3980 O.3   2377  MOL2377    -0.4105
  20130  H         54.3980   72.0210  181.5040 H     2377  MOL2377     0.2052
  20131  H         54.2270   72.3220  183.0640 H     2377  MOL2377     0.2052
  20132  O        172.8190   55.1600  205.4600 O.3   2378  MOL2378    -0.4105
  20133  H        173.4430   54.7370  204.8330 H     2378  MOL2378     0.2052
  20134  H        172.1600   55.6840  204.9360 H     2378  MOL2378     0.2052
  20135  O         70.6700  172.4760    1.3970 O.3   2379  MOL2379    -0.4105
  20136  H         70.1630  173.3090    1.2960 H     2379  MOL2379     0.2052
  20137  H         70.1350  171.7380    1.0030 H     2379  MOL2379     0.2052
  20138  O         90.3480   64.4180   44.5960 O.3   2380  MOL2380    -0.4105
  20139  H         89.9920   63.5050   44.6170 H     2380  MOL2380     0.2052
  20140  H         89.6350   65.0360   44.9020 H     2380  MOL2380     0.2052
  20141  O        121.9940   91.2290  236.3980 O.3   2381  MOL2381    -0.4105
  20142  H        122.5350   91.3310  237.2080 H     2381  MOL2381     0.2052
  20143  H        122.5350   90.7440  235.7220 H     2381  MOL2381     0.2052
  20144  O        196.3500   61.2440  211.2050 O.3   2382  MOL2382    -0.4105
  20145  H        195.8280   62.0690  211.2820 H     2382  MOL2382     0.2052
  20146  H        197.2980   61.4900  211.0460 H     2382  MOL2382     0.2052
  20147  O         88.6780   79.4590  284.5990 O.3   2383  MOL2383    -0.4105
  20148  H         89.4890   79.8830  284.9500 H     2383  MOL2383     0.2052
  20149  H         87.9500   80.1330  284.6010 H     2383  MOL2383     0.2052
  20150  O         58.3250  163.0960  187.6000 O.3   2384  MOL2384    -0.4105
  20151  H         57.8020  162.4120  188.0680 H     2384  MOL2384     0.2052
  20152  H         59.2620  163.0460  187.9240 H     2384  MOL2384     0.2052
  20153  O        166.7640  163.5730  133.9440 O.3   2385  MOL2385    -0.4105
  20154  H        167.3090  163.3850  133.1520 H     2385  MOL2385     0.2052
  20155  H        166.6580  164.5560  134.0220 H     2385  MOL2385     0.2052
  20156  O         67.1260  147.6140  256.1750 O.3   2386  MOL2386    -0.4105
  20157  H         66.1680  147.5630  255.9740 H     2386  MOL2386     0.2052
  20158  H         67.4450  148.5230  255.9370 H     2386  MOL2386     0.2052
  20159  O        186.4500   43.0870    0.3620 O.3   2387  MOL2387    -0.4105
  20160  H        186.1910   42.1520    0.4980 H     2387  MOL2387     0.2052
  20161  H        185.6230   43.6270    0.2650 H     2387  MOL2387     0.2052
  20162  O         65.0080    6.1440  248.8380 O.3   2388  MOL2388    -0.4105
  20163  H         65.0620    5.4450  249.5240 H     2388  MOL2388     0.2052
  20164  H         65.8080    6.7240  248.9230 H     2388  MOL2388     0.2052
  20165  O        107.6790   32.5140   14.2230 O.3   2389  MOL2389    -0.4105
  20166  H        106.7940   32.2830   14.5760 H     2389  MOL2389     0.2052
  20167  H        108.1370   31.6730   13.9620 H     2389  MOL2389     0.2052
  20168  O        196.2340   31.1070  278.7960 O.3   2390  MOL2390    -0.4105
  20169  H        196.8640   30.5740  278.2680 H     2390  MOL2390     0.2052
  20170  H        196.5450   32.0490  278.7920 H     2390  MOL2390     0.2052
  20171  O         78.6880   22.0470  225.9260 O.3   2391  MOL2391    -0.4105
  20172  H         78.8180   22.6980  226.6460 H     2391  MOL2391     0.2052
  20173  H         78.7360   22.5280  225.0600 H     2391  MOL2391     0.2052
  20174  O         69.9130   43.8460   32.6360 O.3   2392  MOL2392    -0.4105
  20175  H         69.8740   42.9460   32.2480 H     2392  MOL2392     0.2052
  20176  H         69.0320   44.2820   32.4980 H     2392  MOL2392     0.2052
  20177  O         20.3500  134.2860   47.0000 O.3   2393  MOL2393    -0.4105
  20178  H         20.1660  133.8000   46.1690 H     2393  MOL2393     0.2052
  20179  H         21.0400  134.9740   46.8120 H     2393  MOL2393     0.2052
  20180  O         68.2230   77.1470  188.8240 O.3   2394  MOL2394    -0.4105
  20181  H         69.0110   77.5590  188.4110 H     2394  MOL2394     0.2052
  20182  H         68.3020   77.2460  189.8080 H     2394  MOL2394     0.2052
  20183  O         40.5770   99.7120   58.4300 O.3   2395  MOL2395    -0.4105
  20184  H         41.5550   99.6550   58.4110 H     2395  MOL2395     0.2052
  20185  H         40.3210  100.6700   58.3940 H     2395  MOL2395     0.2052
  20186  O         15.4750   88.7560   51.8540 O.3   2396  MOL2396    -0.4105
  20187  H         15.4870   87.7780   51.9210 H     2396  MOL2396     0.2052
  20188  H         16.4070   89.0840   51.9450 H     2396  MOL2396     0.2052
  20189  O         85.3340  186.3740  119.5700 O.3   2397  MOL2397    -0.4105
  20190  H         84.6880  186.3960  118.8330 H     2397  MOL2397     0.2052
  20191  H         86.0660  185.7510  119.3230 H     2397  MOL2397     0.2052
  20192  O          5.9600   54.8360  196.3470 O.3   2398  MOL2398    -0.4105
  20193  H          6.3080   54.9440  197.2570 H     2398  MOL2398     0.2052
  20194  H          4.9690   54.8550  196.3900 H     2398  MOL2398     0.2052
  20195  O        152.1750    2.5720  157.3470 O.3   2399  MOL2399    -0.4105
  20196  H        151.5840    1.8810  156.9810 H     2399  MOL2399     0.2052
  20197  H        152.7210    2.9380  156.6030 H     2399  MOL2399     0.2052
  20198  O         87.4410  156.1310   95.5060 O.3   2400  MOL2400    -0.4105
  20199  H         88.3120  156.0540   95.0640 H     2400  MOL2400     0.2052
  20200  H         87.3870  157.0240   95.9350 H     2400  MOL2400     0.2052
  20201  O         17.1100   83.7970  224.0590 O.3   2401  MOL2401    -0.4105
  20202  H         16.5530   83.0910  224.4490 H     2401  MOL2401     0.2052
  20203  H         17.0480   84.5990  224.6400 H     2401  MOL2401     0.2052
  20204  O         16.0450  178.6680  107.2280 O.3   2402  MOL2402    -0.4105
  20205  H         15.5150  178.2620  107.9460 H     2402  MOL2402     0.2052
  20206  H         16.0710  178.0330  106.4660 H     2402  MOL2402     0.2052
  20207  O         40.7610  125.4640   98.0570 O.3   2403  MOL2403    -0.4105
  20208  H         40.9460  126.2940   97.5700 H     2403  MOL2403     0.2052
  20209  H         41.6240  125.0030   98.2230 H     2403  MOL2403     0.2052
  20210  O         78.1200  149.0630  253.4630 O.3   2404  MOL2404    -0.4105
  20211  H         78.0690  149.7180  254.1900 H     2404  MOL2404     0.2052
  20212  H         78.4210  149.5330  252.6420 H     2404  MOL2404     0.2052
  20213  O        121.5760    1.0790  247.7980 O.3   2405  MOL2405    -0.4105
  20214  H        121.9680    0.1880  247.9140 H     2405  MOL2405     0.2052
  20215  H        120.8220    1.1730  248.4350 H     2405  MOL2405     0.2052
  20216  O          1.5080   79.0310  208.3710 O.3   2406  MOL2406    -0.4105
  20217  H          1.4530   78.6540  207.4680 H     2406  MOL2406     0.2052
  20218  H          2.0790   78.4360  208.9220 H     2406  MOL2406     0.2052
  20219  O        190.9380   38.0780   37.3800 O.3   2407  MOL2407    -0.4105
  20220  H        190.0110   38.3030   37.6020 H     2407  MOL2407     0.2052
  20221  H        191.5160   38.8350   37.6580 H     2407  MOL2407     0.2052
  20222  O         74.6320  179.7130  212.5720 O.3   2408  MOL2408    -0.4105
  20223  H         75.1490  180.0770  213.3200 H     2408  MOL2408     0.2052
  20224  H         74.1090  180.4530  212.1670 H     2408  MOL2408     0.2052
  20225  O         94.3760   91.3120  256.7300 O.3   2409  MOL2409    -0.4105
  20226  H         94.8670   90.4640  256.7460 H     2409  MOL2409     0.2052
  20227  H         93.4220   91.1160  256.5370 H     2409  MOL2409     0.2052
  20228  O         40.6070   37.2800    2.5400 O.3   2410  MOL2410    -0.4105
  20229  H         41.2920   37.9800    2.5100 H     2410  MOL2410     0.2052
  20230  H         41.0640   36.4000    2.5750 H     2410  MOL2410     0.2052
  20231  O        164.1110  170.0760   38.1280 O.3   2411  MOL2411    -0.4105
  20232  H        163.5580  169.5820   38.7680 H     2411  MOL2411     0.2052
  20233  H        163.8470  171.0320   38.1630 H     2411  MOL2411     0.2052
  20234  O        127.3030  139.6610   48.9310 O.3   2412  MOL2412    -0.4105
  20235  H        126.7550  138.8680   49.1100 H     2412  MOL2412     0.2052
  20236  H        126.7230  140.4630   49.0070 H     2412  MOL2412     0.2052
  20237  O         55.0150   23.8090  122.8590 O.3   2413  MOL2413    -0.4105
  20238  H         54.1780   23.2990  122.8640 H     2413  MOL2413     0.2052
  20239  H         55.7240   23.2370  122.4660 H     2413  MOL2413     0.2052
  20240  O          9.6530   37.7570  112.6030 O.3   2414  MOL2414    -0.4105
  20241  H         10.1820   38.3600  112.0410 H     2414  MOL2414     0.2052
  20242  H         10.1730   36.9230  112.7380 H     2414  MOL2414     0.2052
  20243  O         92.2110   73.1440  231.2440 O.3   2415  MOL2415    -0.4105
  20244  H         91.2520   73.0350  231.4140 H     2415  MOL2415     0.2052
  20245  H         92.7080   72.7790  232.0220 H     2415  MOL2415     0.2052
  20246  O        145.6270  171.4930  164.1110 O.3   2416  MOL2416    -0.4105
  20247  H        144.7390  171.9060  164.0700 H     2416  MOL2416     0.2052
  20248  H        145.5100  170.5080  164.1320 H     2416  MOL2416     0.2052
  20249  O         52.5400  100.1700  276.3480 O.3   2417  MOL2417    -0.4105
  20250  H         52.6980   99.2990  275.9260 H     2417  MOL2417     0.2052
  20251  H         52.9500  100.8700  275.7770 H     2417  MOL2417     0.2052
  20252  O         58.5310  133.2190  276.9490 O.3   2418  MOL2418    -0.4105
  20253  H         58.7120  132.2570  276.9050 H     2418  MOL2418     0.2052
  20254  H         57.9820  133.3960  277.7560 H     2418  MOL2418     0.2052
  20255  O         88.9350   15.0940  105.1680 O.3   2419  MOL2419    -0.4105
  20256  H         89.4960   14.3010  105.0330 H     2419  MOL2419     0.2052
  20257  H         88.2250   14.8650  105.8220 H     2419  MOL2419     0.2052
  20258  O        105.5070   67.1660  233.6340 O.3   2420  MOL2420    -0.4105
  20259  H        106.4630   67.3490  233.7550 H     2420  MOL2420     0.2052
  20260  H        105.0140   67.5820  234.3890 H     2420  MOL2420     0.2052
  20261  O        174.2040    5.7580  169.1330 O.3   2421  MOL2421    -0.4105
  20262  H        173.2770    6.0750  169.0900 H     2421  MOL2421     0.2052
  20263  H        174.2150    4.7970  168.8850 H     2421  MOL2421     0.2052
  20264  O        158.2130  151.3660  179.9680 O.3   2422  MOL2422    -0.4105
  20265  H        159.0880  151.8080  179.9870 H     2422  MOL2422     0.2052
  20266  H        158.3610  150.3850  180.0040 H     2422  MOL2422     0.2052
  20267  O          8.9780  197.6800  287.2140 O.3   2423  MOL2423    -0.4105
  20268  H          9.1630  198.4370  286.6200 H     2423  MOL2423     0.2052
  20269  H          9.8410  197.2550  287.4550 H     2423  MOL2423     0.2052
  20270  O         43.2350  169.8810   50.9310 O.3   2424  MOL2424    -0.4105
  20271  H         42.3720  170.2020   51.2680 H     2424  MOL2424     0.2052
  20272  H         43.5840  170.5510   50.2860 H     2424  MOL2424     0.2052
  20273  O         36.5090  178.6560  235.0940 O.3   2425  MOL2425    -0.4105
  20274  H         36.8160  178.4000  235.9890 H     2425  MOL2425     0.2052
  20275  H         36.6660  177.8900  234.4820 H     2425  MOL2425     0.2052
  20276  O        112.6980   19.0580   49.2540 O.3   2426  MOL2426    -0.4105
  20277  H        113.4670   19.0870   49.8600 H     2426  MOL2426     0.2052
  20278  H        112.8930   19.6430   48.4760 H     2426  MOL2426     0.2052
  20279  O        165.7100   57.5530  222.9850 O.3   2427  MOL2427    -0.4105
  20280  H        165.8410   56.6300  222.6810 H     2427  MOL2427     0.2052
  20281  H        166.4450   58.1090  222.6150 H     2427  MOL2427     0.2052
  20282  O        169.9560   41.4160   60.9270 O.3   2428  MOL2428    -0.4105
  20283  H        170.5450   41.0310   60.2440 H     2428  MOL2428     0.2052
  20284  H        169.0910   40.9300   60.9000 H     2428  MOL2428     0.2052
  20285  O        143.0700  186.2600   87.9800 O.3   2429  MOL2429    -0.4105
  20286  H        143.4900  185.4830   88.4040 H     2429  MOL2429     0.2052
  20287  H        142.2060  185.9700   87.5860 H     2429  MOL2429     0.2052
  20288  O        181.5170   77.9290  160.9620 O.3   2430  MOL2430    -0.4105
  20289  H        181.8880   77.0350  161.1150 H     2430  MOL2430     0.2052
  20290  H        180.8920   77.8770  160.1930 H     2430  MOL2430     0.2052
  20291  O         11.3500   48.9590  199.8400 O.3   2431  MOL2431    -0.4105
  20292  H         11.5880   49.7740  200.3290 H     2431  MOL2431     0.2052
  20293  H         11.8310   48.9670  198.9720 H     2431  MOL2431     0.2052
  20294  O        124.3060   37.7810   20.1850 O.3   2432  MOL2432    -0.4105
  20295  H        125.2160   38.1180   20.3220 H     2432  MOL2432     0.2052
  20296  H        124.2990   36.8110   20.3940 H     2432  MOL2432     0.2052
  20297  O        158.4340  176.7700  211.0320 O.3   2433  MOL2433    -0.4105
  20298  H        157.9860  176.7330  211.9030 H     2433  MOL2433     0.2052
  20299  H        158.4960  177.7210  210.7550 H     2433  MOL2433     0.2052
  20300  O         20.2420   23.7600  193.5420 O.3   2434  MOL2434    -0.4105
  20301  H         20.8450   23.0120  193.3510 H     2434  MOL2434     0.2052
  20302  H         19.4970   23.7340  192.8870 H     2434  MOL2434     0.2052
  20303  O         50.7110   25.1530  231.9480 O.3   2435  MOL2435    -0.4105
  20304  H         49.8410   25.5400  232.1820 H     2435  MOL2435     0.2052
  20305  H         51.2640   25.8640  231.5320 H     2435  MOL2435     0.2052
  20306  O        124.1360  158.3990   28.0670 O.3   2436  MOL2436    -0.4105
  20307  H        124.4310  157.7200   28.7100 H     2436  MOL2436     0.2052
  20308  H        123.6310  159.0950   28.5610 H     2436  MOL2436     0.2052
  20309  O        181.2850   40.8630    8.3480 O.3   2437  MOL2437    -0.4105
  20310  H        181.7680   40.5890    7.5400 H     2437  MOL2437     0.2052
  20311  H        180.3130   40.7550    8.1800 H     2437  MOL2437     0.2052
  20312  O         84.8790  171.1620   89.0720 O.3   2438  MOL2438    -0.4105
  20313  H         84.6640  172.1120   89.1830 H     2438  MOL2438     0.2052
  20314  H         85.3350  170.8490   89.8960 H     2438  MOL2438     0.2052
  20315  O        158.8950  164.8350  144.1330 O.3   2439  MOL2439    -0.4105
  20316  H        158.2680  164.0810  144.1210 H     2439  MOL2439     0.2052
  20317  H        158.8000  165.3310  143.2780 H     2439  MOL2439     0.2052
  20318  O        174.5560   22.2880  238.9020 O.3   2440  MOL2440    -0.4105
  20319  H        175.2720   21.6290  239.0170 H     2440  MOL2440     0.2052
  20320  H        174.8320   23.1280  239.3530 H     2440  MOL2440     0.2052
  20321  O        117.8720  112.8420  257.8570 O.3   2441  MOL2441    -0.4105
  20322  H        117.1970  113.5510  257.8240 H     2441  MOL2441     0.2052
  20323  H        117.4030  111.9680  257.8820 H     2441  MOL2441     0.2052
  20324  O        117.7300   16.6870  283.9610 O.3   2442  MOL2442    -0.4105
  20325  H        116.8050   16.8310  284.2510 H     2442  MOL2442     0.2052
  20326  H        117.8480   15.7220  283.7670 H     2442  MOL2442     0.2052
  20327  O        114.6790   65.9530   76.0730 O.3   2443  MOL2443    -0.4105
  20328  H        113.9560   66.0550   76.7270 H     2443  MOL2443     0.2052
  20329  H        114.7110   66.7720   75.5150 H     2443  MOL2443     0.2052
  20330  O        184.4610   15.1550  252.6260 O.3   2444  MOL2444    -0.4105
  20331  H        184.0510   16.0250  252.4370 H     2444  MOL2444     0.2052
  20332  H        184.9920   15.2370  253.4600 H     2444  MOL2444     0.2052
  20333  O         20.5620  197.9970    5.4250 O.3   2445  MOL2445    -0.4105
  20334  H         20.5680  197.1920    5.9850 H     2445  MOL2445     0.2052
  20335  H         19.6400  198.1290    5.0820 H     2445  MOL2445     0.2052
  20336  O         38.4840   19.7500  107.9780 O.3   2446  MOL2446    -0.4105
  20337  H         37.9940   19.4090  108.7550 H     2446  MOL2446     0.2052
  20338  H         38.5800   19.0120  107.3230 H     2446  MOL2446     0.2052
  20339  O        135.3640   37.1600  255.0290 O.3   2447  MOL2447    -0.4105
  20340  H        135.3710   37.3780  255.9850 H     2447  MOL2447     0.2052
  20341  H        135.9560   36.3770  254.8850 H     2447  MOL2447     0.2052
  20342  O         81.4180  156.3850  223.7610 O.3   2448  MOL2448    -0.4105
  20343  H         80.4500  156.5020  223.6660 H     2448  MOL2448     0.2052
  20344  H         81.6040  156.0640  224.6820 H     2448  MOL2448     0.2052
  20345  O        175.1500  147.7020  208.3410 O.3   2449  MOL2449    -0.4105
  20346  H        174.9640  146.8140  207.9710 H     2449  MOL2449     0.2052
  20347  H        174.6540  147.7910  209.1970 H     2449  MOL2449     0.2052
  20348  O        121.9990   81.8350  167.3360 O.3   2450  MOL2450    -0.4105
  20349  H        122.1050   80.8600  167.3170 H     2450  MOL2450     0.2052
  20350  H        122.9020   82.2450  167.3210 H     2450  MOL2450     0.2052
  20351  O        105.7690  197.5400   88.4140 O.3   2451  MOL2451    -0.4105
  20352  H        106.3250  196.7550   88.5990 H     2451  MOL2451     0.2052
  20353  H        104.9390  197.2350   87.9660 H     2451  MOL2451     0.2052
  20354  O        172.5330  165.9810  170.8840 O.3   2452  MOL2452    -0.4105
  20355  H        172.9010  166.8860  170.9660 H     2452  MOL2452     0.2052
  20356  H        172.1840  165.7070  171.7720 H     2452  MOL2452     0.2052
  20357  O        118.2060  153.6540   54.8950 O.3   2453  MOL2453    -0.4105
  20358  H        118.9450  153.2650   55.4080 H     2453  MOL2453     0.2052
  20359  H        118.1690  154.6260   55.0930 H     2453  MOL2453     0.2052
  20360  O         42.0730  131.9150   36.8120 O.3   2454  MOL2454    -0.4105
  20361  H         43.0420  131.9760   36.6830 H     2454  MOL2454     0.2052
  20362  H         41.7210  131.2190   36.1980 H     2454  MOL2454     0.2052
  20363  O        186.5270   82.1690  149.0880 O.3   2455  MOL2455    -0.4105
  20364  H        185.5610   82.0050  149.0680 H     2455  MOL2455     0.2052
  20365  H        186.9840   81.3060  149.2650 H     2455  MOL2455     0.2052
  20366  O         67.9730   54.4590  269.8280 O.3   2456  MOL2456    -0.4105
  20367  H         67.6200   55.3420  269.5940 H     2456  MOL2456     0.2052
  20368  H         68.9200   54.4160  269.5340 H     2456  MOL2456     0.2052
  20369  O        179.6290   15.7890  123.1370 O.3   2457  MOL2457    -0.4105
  20370  H        179.5520   16.5920  122.5800 H     2457  MOL2457     0.2052
  20371  H        180.0860   15.0860  122.6070 H     2457  MOL2457     0.2052
  20372  O         98.1500  117.6280   34.5960 O.3   2458  MOL2458    -0.4105
  20373  H         97.6710  117.6080   33.7420 H     2458  MOL2458     0.2052
  20374  H         98.4050  118.5680   34.7870 H     2458  MOL2458     0.2052
  20375  O        117.2850   34.5060  207.7410 O.3   2459  MOL2459    -0.4105
  20376  H        117.8980   35.1900  208.0830 H     2459  MOL2459     0.2052
  20377  H        116.7030   34.9250  207.0560 H     2459  MOL2459     0.2052
  20378  O         22.2040  197.0490  109.7240 O.3   2460  MOL2460    -0.4105
  20379  H         21.6160  197.6110  110.2710 H     2460  MOL2460     0.2052
  20380  H         21.6580  196.6340  109.0070 H     2460  MOL2460     0.2052
  20381  O         78.5410   35.4160  258.3090 O.3   2461  MOL2461    -0.4105
  20382  H         78.0570   34.8000  258.8970 H     2461  MOL2461     0.2052
  20383  H         79.4670   35.5100  258.6530 H     2461  MOL2461     0.2052
  20384  O        106.0970   54.2200  261.7790 O.3   2462  MOL2462    -0.4105
  20385  H        106.6970   53.5260  261.4340 H     2462  MOL2462     0.2052
  20386  H        105.2270   54.1410  261.3080 H     2462  MOL2462     0.2052
  20387  O        122.7000   65.9880  260.3530 O.3   2463  MOL2463    -0.4105
  20388  H        122.4880   65.0960  260.6990 H     2463  MOL2463     0.2052
  20389  H        121.8650   66.5250  260.3450 H     2463  MOL2463     0.2052
  20390  O         57.3790  108.9870  285.0010 O.3   2464  MOL2464    -0.4105
  20391  H         56.6630  108.6570  284.4170 H     2464  MOL2464     0.2052
  20392  H         58.1110  108.3170  285.0030 H     2464  MOL2464     0.2052
  20393  O         77.6790  186.6580  259.1510 O.3   2465  MOL2465    -0.4105
  20394  H         77.7920  187.3200  259.8650 H     2465  MOL2465     0.2052
  20395  H         76.8900  186.0980  259.3700 H     2465  MOL2465     0.2052
  20396  O        143.0310   43.7590  284.4100 O.3   2466  MOL2466    -0.4105
  20397  H        142.6300   44.6260  284.1930 H     2466  MOL2466     0.2052
  20398  H        143.9190   43.7090  283.9680 H     2466  MOL2466     0.2052
  20399  O         35.9620  113.4840   49.4430 O.3   2467  MOL2467    -0.4105
  20400  H         36.9130  113.3320   49.6280 H     2467  MOL2467     0.2052
  20401  H         35.4540  112.6950   49.7650 H     2467  MOL2467     0.2052
  20402  O        171.5030   28.5720  169.9560 O.3   2468  MOL2468    -0.4105
  20403  H        171.3260   29.3640  169.4060 H     2468  MOL2468     0.2052
  20404  H        171.1580   27.7760  169.4740 H     2468  MOL2468     0.2052
  20405  O        169.2350  149.2210  269.3890 O.3   2469  MOL2469    -0.4105
  20406  H        169.0740  148.5000  270.0320 H     2469  MOL2469     0.2052
  20407  H        169.3490  150.0680  269.8930 H     2469  MOL2469     0.2052
  20408  O         47.6320    3.2510   76.8870 O.3   2470  MOL2470    -0.4105
  20409  H         48.2920    2.6040   76.5620 H     2470  MOL2470     0.2052
  20410  H         47.0130    3.4650   76.1410 H     2470  MOL2470     0.2052
  20411  O        125.2740  174.6500   78.2310 O.3   2471  MOL2471    -0.4105
  20412  H        124.4220  174.5780   78.7100 H     2471  MOL2471     0.2052
  20413  H        125.6440  175.5570   78.3900 H     2471  MOL2471     0.2052
  20414  O         95.5450    6.6050   77.5940 O.3   2472  MOL2472    -0.4105
  20415  H         94.9370    5.8710   77.8200 H     2472  MOL2472     0.2052
  20416  H         95.0290    7.4520   77.6080 H     2472  MOL2472     0.2052
  20417  O        186.8710  119.9210  158.3700 O.3   2473  MOL2473    -0.4105
  20418  H        185.9120  119.7280  158.3030 H     2473  MOL2473     0.2052
  20419  H        186.9970  120.9010  158.2800 H     2473  MOL2473     0.2052
  20420  O        193.7000  184.2800  215.9090 O.3   2474  MOL2474    -0.4105
  20421  H        193.3650  184.0650  216.8050 H     2474  MOL2474     0.2052
  20422  H        193.4440  183.5430  215.2970 H     2474  MOL2474     0.2052
  20423  O        196.9110   24.0240   85.7900 O.3   2475  MOL2475    -0.4105
  20424  H        197.6610   24.1210   85.1670 H     2475  MOL2475     0.2052
  20425  H        197.2500   23.5930   86.6180 H     2475  MOL2475     0.2052
  20426  O         13.5200   44.5050   30.8120 O.3   2476  MOL2476    -0.4105
  20427  H         13.6240   45.1820   31.5130 H     2476  MOL2476     0.2052
  20428  H         13.2880   44.9670   29.9650 H     2476  MOL2476     0.2052
  20429  O         37.8350   46.1880   91.7550 O.3   2477  MOL2477    -0.4105
  20430  H         36.9290   45.9570   91.4600 H     2477  MOL2477     0.2052
  20431  H         37.8610   47.1620   91.9450 H     2477  MOL2477     0.2052
  20432  O         25.6310  141.7170  242.7800 O.3   2478  MOL2478    -0.4105
  20433  H         26.4850  141.2470  242.8810 H     2478  MOL2478     0.2052
  20434  H         24.9370  141.0510  242.5340 H     2478  MOL2478     0.2052
  20435  O         95.2620   34.0720  239.5570 O.3   2479  MOL2479    -0.4105
  20436  H         96.1080   33.7020  239.2270 H     2479  MOL2479     0.2052
  20437  H         95.3790   35.0490  239.6840 H     2479  MOL2479     0.2052
  20438  O        102.5050   33.0360  204.6910 O.3   2480  MOL2480    -0.4105
  20439  H        101.9020   33.6900  205.1020 H     2480  MOL2480     0.2052
  20440  H        103.4350   33.2620  204.9550 H     2480  MOL2480     0.2052
  20441  O         24.1830  140.4020    3.1920 O.3   2481  MOL2481    -0.4105
  20442  H         24.6030  141.2800    3.3100 H     2481  MOL2481     0.2052
  20443  H         24.2540  140.1510    2.2350 H     2481  MOL2481     0.2052
  20444  O        181.3470   62.0980  184.6340 O.3   2482  MOL2482    -0.4105
  20445  H        180.5470   61.6120  184.3440 H     2482  MOL2482     0.2052
  20446  H        181.1850   62.4410  185.5510 H     2482  MOL2482     0.2052
  20447  O        131.5500   43.6960  296.6100 O.3   2483  MOL2483    -0.4105
  20448  H        131.0820   44.1610  295.8850 H     2483  MOL2483     0.2052
  20449  H        132.5120   43.6370  296.3720 H     2483  MOL2483     0.2052
  20450  O         28.4580   55.3710  298.0510 O.3   2484  MOL2484    -0.4105
  20451  H         28.4630   54.8720  298.8950 H     2484  MOL2484     0.2052
  20452  H         27.5190   55.4410  297.7380 H     2484  MOL2484     0.2052
  20453  O        185.2230   78.2380  246.7310 O.3   2485  MOL2485    -0.4105
  20454  H        184.8580   79.1170  246.9670 H     2485  MOL2485     0.2052
  20455  H        185.6110   77.8340  247.5510 H     2485  MOL2485     0.2052
  20456  O        192.4680  104.2210  102.8400 O.3   2486  MOL2486    -0.4105
  20457  H        192.1590  105.0080  102.3450 H     2486  MOL2486     0.2052
  20458  H        193.4440  104.3140  102.9920 H     2486  MOL2486     0.2052
  20459  O        121.2360   44.8330   89.9860 O.3   2487  MOL2487    -0.4105
  20460  H        122.1920   44.8420   89.7740 H     2487  MOL2487     0.2052
  20461  H        120.8980   45.7650   89.9420 H     2487  MOL2487     0.2052
  20462  O        139.1750   90.6770  275.7820 O.3   2488  MOL2488    -0.4105
  20463  H        139.9660   90.1360  275.5760 H     2488  MOL2488     0.2052
  20464  H        139.4700   91.6100  275.9460 H     2488  MOL2488     0.2052
  20465  O         30.1100   20.6270  188.2550 O.3   2489  MOL2489    -0.4105
  20466  H         30.6780   21.0020  187.5500 H     2489  MOL2489     0.2052
  20467  H         30.6990   20.2370  188.9530 H     2489  MOL2489     0.2052
  20468  O         77.2430  193.5340   94.2690 O.3   2490  MOL2490    -0.4105
  20469  H         77.8270  194.3200   94.2190 H     2490  MOL2490     0.2052
  20470  H         76.3040  193.8490   94.3430 H     2490  MOL2490     0.2052
  20471  O        187.6350   74.4410  260.2210 O.3   2491  MOL2491    -0.4105
  20472  H        186.6600   74.4670  260.1310 H     2491  MOL2491     0.2052
  20473  H        187.9680   75.3750  260.2670 H     2491  MOL2491     0.2052
  20474  O        166.6030  196.4890  137.0710 O.3   2492  MOL2492    -0.4105
  20475  H        166.1060  195.9450  137.7180 H     2492  MOL2492     0.2052
  20476  H        167.0490  197.2260  137.5630 H     2492  MOL2492     0.2052
  20477  O        162.6490  195.4180  256.9960 O.3   2493  MOL2493    -0.4105
  20478  H        162.2020  196.0190  257.6280 H     2493  MOL2493     0.2052
  20479  H        163.6080  195.3650  257.2440 H     2493  MOL2493     0.2052
  20480  O        157.7820   73.9400  282.7080 O.3   2494  MOL2494    -0.4105
  20481  H        158.6050   74.3170  282.3340 H     2494  MOL2494     0.2052
  20482  H        157.0360   74.5640  282.5100 H     2494  MOL2494     0.2052
  20483  O         37.1810   48.7170   26.6800 O.3   2495  MOL2495    -0.4105
  20484  H         37.0520   47.7450   26.6620 H     2495  MOL2495     0.2052
  20485  H         36.5620   49.1250   26.0210 H     2495  MOL2495     0.2052
  20486  O        157.6400   53.7580  275.5780 O.3   2496  MOL2496    -0.4105
  20487  H        157.8700   52.8580  275.8900 H     2496  MOL2496     0.2052
  20488  H        157.6650   54.3720  276.3570 H     2496  MOL2496     0.2052
  20489  O         39.1180   22.1790   82.8340 O.3   2497  MOL2497    -0.4105
  20490  H         39.9570   21.6720   82.8510 H     2497  MOL2497     0.2052
  20491  H         39.3320   23.1370   82.9780 H     2497  MOL2497     0.2052
  20492  O          1.1680   42.0140   63.9320 O.3   2498  MOL2498    -0.4105
  20493  H          1.2300   41.3540   64.6530 H     2498  MOL2498     0.2052
  20494  H          0.7400   41.5800   63.1490 H     2498  MOL2498     0.2052
  20495  O        185.1470  130.2250   62.6200 O.3   2499  MOL2499    -0.4105
  20496  H        184.8810  129.3560   62.9870 H     2499  MOL2499     0.2052
  20497  H        186.1260  130.3280   62.7460 H     2499  MOL2499     0.2052
  20498  O        168.9410  183.3140  154.7620 O.3   2500  MOL2500    -0.4105
  20499  H        169.2230  183.0950  153.8490 H     2500  MOL2500     0.2052
  20500  H        168.7930  184.2940  154.8140 H     2500  MOL2500     0.2052
  20501  O        158.7520   24.5660  170.4860 O.3   2501  MOL2501    -0.4105
  20502  H        159.1850   25.2970  170.9750 H     2501  MOL2501     0.2052
  20503  H        158.6620   23.7920  171.1010 H     2501  MOL2501     0.2052
  20504  O        191.6770   20.0910   42.9240 O.3   2502  MOL2502    -0.4105
  20505  H        192.6160   20.3100   43.1010 H     2502  MOL2502     0.2052
  20506  H        191.3950   19.3910   43.5680 H     2502  MOL2502     0.2052
  20507  O         70.6220   80.8910   62.9670 O.3   2503  MOL2503    -0.4105
  20508  H         70.8740   81.8320   63.0780 H     2503  MOL2503     0.2052
  20509  H         70.1910   80.5840   63.8060 H     2503  MOL2503     0.2052
  20510  O        173.0730   93.8580  128.5070 O.3   2504  MOL2504    -0.4105
  20511  H        172.3590   93.3850  128.9830 H     2504  MOL2504     0.2052
  20512  H        172.7360   94.1060  127.6080 H     2504  MOL2504     0.2052
  20513  O        196.4620   78.2970  109.8440 O.3   2505  MOL2505    -0.4105
  20514  H        195.8960   77.4970  109.8370 H     2505  MOL2505     0.2052
  20515  H        195.8900   79.0830  109.6470 H     2505  MOL2505     0.2052
  20516  O        102.8570   53.4000  251.4930 O.3   2506  MOL2506    -0.4105
  20517  H        102.7850   53.0660  250.5740 H     2506  MOL2506     0.2052
  20518  H        103.0220   52.6270  252.0920 H     2506  MOL2506     0.2052
  20519  O        104.9280   41.6330   36.4780 O.3   2507  MOL2507    -0.4105
  20520  H        104.4190   41.7890   37.3010 H     2507  MOL2507     0.2052
  20521  H        105.0500   40.6550   36.3680 H     2507  MOL2507     0.2052
  20522  O         56.8960  129.5740   40.2210 O.3   2508  MOL2508    -0.4105
  20523  H         55.9250  129.4550   40.1490 H     2508  MOL2508     0.2052
  20524  H         57.0790  130.5380   40.3700 H     2508  MOL2508     0.2052
  20525  O        195.9020  146.1270  220.8400 O.3   2509  MOL2509    -0.4105
  20526  H        195.9360  146.8060  220.1330 H     2509  MOL2509     0.2052
  20527  H        195.7250  145.2470  220.4160 H     2509  MOL2509     0.2052
  20528  O         94.2670    3.4270   21.2960 O.3   2510  MOL2510    -0.4105
  20529  H         94.1020    3.7170   20.3750 H     2510  MOL2510     0.2052
  20530  H         94.7810    4.1380   21.7580 H     2510  MOL2510     0.2052
  20531  O         52.6690  156.1440  168.3700 O.3   2511  MOL2511    -0.4105
  20532  H         51.9540  155.9600  167.7260 H     2511  MOL2511     0.2052
  20533  H         53.4560  155.5900  168.1270 H     2511  MOL2511     0.2052
  20534  O        152.1810  142.7770  242.0920 O.3   2512  MOL2512    -0.4105
  20535  H        151.7100  142.1650  241.4890 H     2512  MOL2512     0.2052
  20536  H        153.0500  142.3640  242.3360 H     2512  MOL2512     0.2052
  20537  O        136.2390   99.0890   66.9610 O.3   2513  MOL2513    -0.4105
  20538  H        136.4330   98.2420   67.4150 H     2513  MOL2513     0.2052
  20539  H        136.7530   99.8080   67.4120 H     2513  MOL2513     0.2052
  20540  O          4.3770   31.9390  140.2060 O.3   2514  MOL2514    -0.4105
  20541  H          3.5910   32.4720  139.9660 H     2514  MOL2514     0.2052
  20542  H          5.1220   32.5600  140.4170 H     2514  MOL2514     0.2052
  20543  O         58.9950   91.1740  238.0320 O.3   2515  MOL2515    -0.4105
  20544  H         59.7900   91.1260  238.6030 H     2515  MOL2515     0.2052
  20545  H         59.2460   91.6360  237.1900 H     2515  MOL2515     0.2052
  20546  O        101.4380   59.3370   53.9780 O.3   2516  MOL2516    -0.4105
  20547  H        101.9670   58.6820   54.4800 H     2516  MOL2516     0.2052
  20548  H        101.8930   59.5050   53.1120 H     2516  MOL2516     0.2052
  20549  O        180.0670  138.2370   88.7580 O.3   2517  MOL2517    -0.4105
  20550  H        180.1700  138.7160   87.9100 H     2517  MOL2517     0.2052
  20551  H        180.4600  138.7940   89.4790 H     2517  MOL2517     0.2052
  20552  O        161.8220    6.3110  205.4080 O.3   2518  MOL2518    -0.4105
  20553  H        161.6730    5.8960  204.5320 H     2518  MOL2518     0.2052
  20554  H        161.1760    5.9180  206.0510 H     2518  MOL2518     0.2052
  20555  O         90.2560  178.8550  148.2110 O.3   2519  MOL2519    -0.4105
  20556  H         89.9800  179.3680  147.4230 H     2519  MOL2519     0.2052
  20557  H         90.1860  179.4450  149.0060 H     2519  MOL2519     0.2052
  20558  O        124.1690  139.9450  166.9040 O.3   2520  MOL2520    -0.4105
  20559  H        124.3600  140.4400  166.0810 H     2520  MOL2520     0.2052
  20560  H        123.2470  139.5830  166.8420 H     2520  MOL2520     0.2052
  20561  O        190.7470  100.9330  130.1430 O.3   2521  MOL2521    -0.4105
  20562  H        191.0440  100.0030  130.2220 H     2521  MOL2521     0.2052
  20563  H        189.7550  100.9410  130.1150 H     2521  MOL2521     0.2052
  20564  O        126.2020  156.2930   35.4200 O.3   2522  MOL2522    -0.4105
  20565  H        125.9130  156.2870   36.3570 H     2522  MOL2522     0.2052
  20566  H        126.3190  157.2370   35.1370 H     2522  MOL2522     0.2052
  20567  O         61.3190   89.7390   11.1460 O.3   2523  MOL2523    -0.4105
  20568  H         60.5350   89.2490   10.8210 H     2523  MOL2523     0.2052
  20569  H         61.0030   90.5530   11.6180 H     2523  MOL2523     0.2052
  20570  O        195.2940   43.8230  198.3090 O.3   2524  MOL2524    -0.4105
  20571  H        194.4290   43.4110  198.1020 H     2524  MOL2524     0.2052
  20572  H        195.8910   43.1210  198.6780 H     2524  MOL2524     0.2052
  20573  O        187.8780   51.6240   67.8280 O.3   2525  MOL2525    -0.4105
  20574  H        187.4440   50.8600   68.2630 H     2525  MOL2525     0.2052
  20575  H        187.3050   51.9180   67.0730 H     2525  MOL2525     0.2052
  20576  O        191.9850   45.9010  165.8390 O.3   2526  MOL2526    -0.4105
  20577  H        192.0290   46.5460  165.1030 H     2526  MOL2526     0.2052
  20578  H        192.8150   45.3570  165.8250 H     2526  MOL2526     0.2052
  20579  O        152.0870   60.6280   39.0630 O.3   2527  MOL2527    -0.4105
  20580  H        152.3900   60.3150   38.1850 H     2527  MOL2527     0.2052
  20581  H        151.0990   60.5480   39.0970 H     2527  MOL2527     0.2052
  20582  O          4.3490    4.0980  135.9370 O.3   2528  MOL2528    -0.4105
  20583  H          4.6680    3.8470  136.8290 H     2528  MOL2528     0.2052
  20584  H          3.3570    4.1200  135.9570 H     2528  MOL2528     0.2052
  20585  O         91.2510   73.9670  180.5960 O.3   2529  MOL2529    -0.4105
  20586  H         91.2950   73.4980  181.4550 H     2529  MOL2529     0.2052
  20587  H         90.3380   73.8490  180.2240 H     2529  MOL2529     0.2052
  20588  O          6.2320  148.9980   55.9170 O.3   2530  MOL2530    -0.4105
  20589  H          5.3330  148.6710   55.7010 H     2530  MOL2530     0.2052
  20590  H          6.6210  149.4000   55.0980 H     2530  MOL2530     0.2052
  20591  O        105.8510   88.8370   15.3160 O.3   2531  MOL2531    -0.4105
  20592  H        106.2790   89.7040   15.1600 H     2531  MOL2531     0.2052
  20593  H        106.2370   88.1810   14.6800 H     2531  MOL2531     0.2052
  20594  O         35.9570    3.3500  228.5760 O.3   2532  MOL2532    -0.4105
  20595  H         36.3900    3.4900  227.7080 H     2532  MOL2532     0.2052
  20596  H         35.8310    4.2350  229.0070 H     2532  MOL2532     0.2052
  20597  O         30.5120   53.2790  289.5190 O.3   2533  MOL2533    -0.4105
  20598  H         30.4270   53.6790  288.6280 H     2533  MOL2533     0.2052
  20599  H         30.5880   54.0130  290.1820 H     2533  MOL2533     0.2052
  20600  O         74.4260  130.8420  262.3750 O.3   2534  MOL2534    -0.4105
  20601  H         74.5960  130.1130  263.0070 H     2534  MOL2534     0.2052
  20602  H         73.5770  130.6480  261.8990 H     2534  MOL2534     0.2052
  20603  O         52.5160    7.1990  239.8290 O.3   2535  MOL2535    -0.4105
  20604  H         51.9720    7.9630  239.5430 H     2535  MOL2535     0.2052
  20605  H         51.9060    6.4470  240.0430 H     2535  MOL2535     0.2052
  20606  O        115.1420  119.9670   25.8160 O.3   2536  MOL2536    -0.4105
  20607  H        116.1160  120.0510   25.7420 H     2536  MOL2536     0.2052
  20608  H        114.9190  119.0050   25.9080 H     2536  MOL2536     0.2052
  20609  O        185.1490  125.7290  170.2390 O.3   2537  MOL2537    -0.4105
  20610  H        185.8600  126.4040  170.2320 H     2537  MOL2537     0.2052
  20611  H        184.6020  125.8630  171.0560 H     2537  MOL2537     0.2052
  20612  O        132.2480   72.5750  209.5250 O.3   2538  MOL2538    -0.4105
  20613  H        131.2710   72.5630  209.6020 H     2538  MOL2538     0.2052
  20614  H        132.6320   72.4890  210.4360 H     2538  MOL2538     0.2052
  20615  O         70.2430  155.0470  148.7300 O.3   2539  MOL2539    -0.4105
  20616  H         69.9830  154.9920  149.6730 H     2539  MOL2539     0.2052
  20617  H         69.4180  155.0650  148.1800 H     2539  MOL2539     0.2052
  20618  O          7.4880  142.9320  102.9190 O.3   2540  MOL2540    -0.4105
  20619  H          8.2980  142.4820  103.2380 H     2540  MOL2540     0.2052
  20620  H          7.2770  143.6720  103.5460 H     2540  MOL2540     0.2052
  20621  O         81.6260   85.9380  271.9160 O.3   2541  MOL2541    -0.4105
  20622  H         82.3460   85.7260  271.2850 H     2541  MOL2541     0.2052
  20623  H         81.2230   85.0850  272.2250 H     2541  MOL2541     0.2052
  20624  O        178.4410  163.2680   89.7730 O.3   2542  MOL2542    -0.4105
  20625  H        177.7930  162.6030   89.4570 H     2542  MOL2542     0.2052
  20626  H        178.1080  164.1680   89.5220 H     2542  MOL2542     0.2052
  20627  O        141.5000   29.7300   70.5490 O.3   2543  MOL2543    -0.4105
  20628  H        141.4150   29.8640   69.5810 H     2543  MOL2543     0.2052
  20629  H        140.8330   29.0490   70.8270 H     2543  MOL2543     0.2052
  20630  O        194.8040  186.1810  108.8890 O.3   2544  MOL2544    -0.4105
  20631  H        195.0330  185.4330  108.2980 H     2544  MOL2544     0.2052
  20632  H        195.4280  186.9280  108.7010 H     2544  MOL2544     0.2052
  20633  O         33.2070  152.6380  249.5530 O.3   2545  MOL2545    -0.4105
  20634  H         33.0080  153.4880  249.9980 H     2545  MOL2545     0.2052
  20635  H         32.5130  151.9790  249.8170 H     2545  MOL2545     0.2052
  20636  O        196.2660    0.5930  106.3420 O.3   2546  MOL2546    -0.4105
  20637  H        195.8230    0.8650  105.5110 H     2546  MOL2546     0.2052
  20638  H        195.6470    0.0040  106.8450 H     2546  MOL2546     0.2052
  20639  O         46.6300   98.0010  164.7530 O.3   2547  MOL2547    -0.4105
  20640  H         46.9220   98.9180  164.5670 H     2547  MOL2547     0.2052
  20641  H         46.2890   97.6070  163.9090 H     2547  MOL2547     0.2052
  20642  O         36.8010  112.8200  289.1440 O.3   2548  MOL2548    -0.4105
  20643  H         36.0710  113.2960  289.5920 H     2548  MOL2548     0.2052
  20644  H         36.5070  111.8870  288.9760 H     2548  MOL2548     0.2052
  20645  O        187.5360   63.4150  221.0670 O.3   2549  MOL2549    -0.4105
  20646  H        186.6650   62.9760  220.9690 H     2549  MOL2549     0.2052
  20647  H        187.4910   64.2990  220.6190 H     2549  MOL2549     0.2052
  20648  O        136.4540   42.1580   17.8220 O.3   2550  MOL2550    -0.4105
  20649  H        136.9000   42.9240   17.4040 H     2550  MOL2550     0.2052
  20650  H        136.9490   41.3360   17.5710 H     2550  MOL2550     0.2052
  20651  O         87.7130  188.1500  114.4890 O.3   2551  MOL2551    -0.4105
  20652  H         87.1010  187.7490  113.8360 H     2551  MOL2551     0.2052
  20653  H         87.7280  187.5720  115.2960 H     2551  MOL2551     0.2052
  20654  O         45.8880   73.6260  101.2860 O.3   2552  MOL2552    -0.4105
  20655  H         46.0200   72.6600  101.3830 H     2552  MOL2552     0.2052
  20656  H         44.9210   73.8200  101.3960 H     2552  MOL2552     0.2052
  20657  O          0.7930  116.7020  210.2760 O.3   2553  MOL2553    -0.4105
  20658  H          0.0110  116.2430  210.6490 H     2553  MOL2553     0.2052
  20659  H          0.4980  117.2250  209.4860 H     2553  MOL2553     0.2052
  20660  O        129.5280  168.2430   49.6860 O.3   2554  MOL2554    -0.4105
  20661  H        130.4370  168.6080   49.7060 H     2554  MOL2554     0.2052
  20662  H        129.4450  167.6600   48.8870 H     2554  MOL2554     0.2052
  20663  O         16.3200   73.4550  181.9170 O.3   2555  MOL2555    -0.4105
  20664  H         16.5340   72.5010  181.8580 H     2555  MOL2555     0.2052
  20665  H         16.1290   73.7880  181.0020 H     2555  MOL2555     0.2052
  20666  O        130.8020  128.9000   73.5410 O.3   2556  MOL2556    -0.4105
  20667  H        130.8320  128.5360   72.6310 H     2556  MOL2556     0.2052
  20668  H        130.1510  128.3680   74.0670 H     2556  MOL2556     0.2052
  20669  O         97.3560   81.7810   58.7740 O.3   2557  MOL2557    -0.4105
  20670  H         97.6330   82.7210   58.7940 H     2557  MOL2557     0.2052
  20671  H         98.1700   81.2190   58.6970 H     2557  MOL2557     0.2052
  20672  O         72.8830   94.1520   75.2210 O.3   2558  MOL2558    -0.4105
  20673  H         72.3980   93.3290   75.0040 H     2558  MOL2558     0.2052
  20674  H         72.2200   94.8500   75.4590 H     2558  MOL2558     0.2052
  20675  O        168.9020  191.4660  270.0700 O.3   2559  MOL2559    -0.4105
  20676  H        168.6000  192.3160  269.6870 H     2559  MOL2559     0.2052
  20677  H        168.3110  190.7450  269.7300 H     2559  MOL2559     0.2052
  20678  O        178.3910   19.5700   28.8970 O.3   2560  MOL2560    -0.4105
  20679  H        179.1260   20.1780   29.1220 H     2560  MOL2560     0.2052
  20680  H        177.5350   20.0490   29.0460 H     2560  MOL2560     0.2052
  20681  O         73.3570  138.9480  170.8080 O.3   2561  MOL2561    -0.4105
  20682  H         72.8250  139.7680  170.8780 H     2561  MOL2561     0.2052
  20683  H         73.3160  138.4770  171.6800 H     2561  MOL2561     0.2052
  20684  O         80.0120  121.1430  177.6400 O.3   2562  MOL2562    -0.4105
  20685  H         79.6120  121.5790  178.4220 H     2562  MOL2562     0.2052
  20686  H         79.5540  120.2740  177.5010 H     2562  MOL2562     0.2052
  20687  O         12.2780   90.5800  289.1100 O.3   2563  MOL2563    -0.4105
  20688  H         12.3460   89.6090  289.2260 H     2563  MOL2563     0.2052
  20689  H         13.1960   90.9530  289.0680 H     2563  MOL2563     0.2052
  20690  O          8.4150   53.9740  298.4430 O.3   2564  MOL2564    -0.4105
  20691  H          7.4840   54.2470  298.5810 H     2564  MOL2564     0.2052
  20692  H          8.8290   53.8200  299.3320 H     2564  MOL2564     0.2052
  20693  O        119.3680   95.8970  236.1720 O.3   2565  MOL2565    -0.4105
  20694  H        119.4980   95.3350  236.9650 H     2565  MOL2565     0.2052
  20695  H        119.7150   95.4050  235.3830 H     2565  MOL2565     0.2052
  20696  O         94.1850   46.1320   12.6010 O.3   2566  MOL2566    -0.4105
  20697  H         94.1610   45.2320   12.9870 H     2566  MOL2566     0.2052
  20698  H         93.2860   46.5380   12.7060 H     2566  MOL2566     0.2052
  20699  O         74.4160   45.6230  230.2710 O.3   2567  MOL2567    -0.4105
  20700  H         74.2270   44.9000  230.9050 H     2567  MOL2567     0.2052
  20701  H         73.6950   46.3000  230.3490 H     2567  MOL2567     0.2052
  20702  O        193.2300  157.6650  202.0570 O.3   2568  MOL2568    -0.4105
  20703  H        193.6460  157.6470  202.9450 H     2568  MOL2568     0.2052
  20704  H        193.2870  156.7540  201.6690 H     2568  MOL2568     0.2052
  20705  O         87.6800   44.6050  209.5390 O.3   2569  MOL2569    -0.4105
  20706  H         87.0120   44.9540  208.9120 H     2569  MOL2569     0.2052
  20707  H         87.8800   43.6660  209.2880 H     2569  MOL2569     0.2052
  20708  O        190.2160   62.9980  149.1700 O.3   2570  MOL2570    -0.4105
  20709  H        190.9800   62.6920  148.6370 H     2570  MOL2570     0.2052
  20710  H        190.1410   63.9820  149.0690 H     2570  MOL2570     0.2052
  20711  O        196.3900  111.9610  113.6910 O.3   2571  MOL2571    -0.4105
  20712  H        196.7560  112.1650  112.8050 H     2571  MOL2571     0.2052
  20713  H        196.9410  112.4280  114.3710 H     2571  MOL2571     0.2052
  20714  O         50.3870   58.0070  211.2840 O.3   2572  MOL2572    -0.4105
  20715  H         51.2630   57.5990  211.1200 H     2572  MOL2572     0.2052
  20716  H         49.8560   57.9490  210.4480 H     2572  MOL2572     0.2052
  20717  O        175.8700  108.7820  298.1620 O.3   2573  MOL2573    -0.4105
  20718  H        176.0660  108.1250  298.8630 H     2573  MOL2573     0.2052
  20719  H        176.7040  109.2820  297.9650 H     2573  MOL2573     0.2052
  20720  O          7.2200   69.6560  225.7240 O.3   2574  MOL2574    -0.4105
  20721  H          7.9730   70.2690  225.5870 H     2574  MOL2574     0.2052
  20722  H          7.5800   68.7340  225.7950 H     2574  MOL2574     0.2052
  20723  O        174.9080   62.6570    7.1840 O.3   2575  MOL2575    -0.4105
  20724  H        174.2070   62.9270    7.8140 H     2575  MOL2575     0.2052
  20725  H        175.3630   61.8560    7.5520 H     2575  MOL2575     0.2052
  20726  O        173.5680  129.3410  180.3740 O.3   2576  MOL2576    -0.4105
  20727  H        174.2980  128.6870  180.3310 H     2576  MOL2576     0.2052
  20728  H        173.9420  130.2370  180.1700 H     2576  MOL2576     0.2052
  20729  O        102.0100  151.6300   49.3250 O.3   2577  MOL2577    -0.4105
  20730  H        102.7010  152.3080   49.4750 H     2577  MOL2577     0.2052
  20731  H        101.1460  152.0950   49.1770 H     2577  MOL2577     0.2052
  20732  O         46.3780  161.1610   20.7330 O.3   2578  MOL2578    -0.4105
  20733  H         45.9420  162.0270   20.8740 H     2578  MOL2578     0.2052
  20734  H         47.0050  161.2500   19.9690 H     2578  MOL2578     0.2052
  20735  O        190.8870   72.9130   39.0480 O.3   2579  MOL2579    -0.4105
  20736  H        191.5920   72.3290   39.4000 H     2579  MOL2579     0.2052
  20737  H        191.3190   73.6640   38.5650 H     2579  MOL2579     0.2052
  20738  O        152.9810  109.4710  220.3190 O.3   2580  MOL2580    -0.4105
  20739  H        152.6070  110.2300  219.8240 H     2580  MOL2580     0.2052
  20740  H        152.3250  108.7270  220.2870 H     2580  MOL2580     0.2052
  20741  O        179.6830   12.7450  137.6200 O.3   2581  MOL2581    -0.4105
  20742  H        179.0670   11.9830  137.6080 H     2581  MOL2581     0.2052
  20743  H        179.1630   13.5690  137.4330 H     2581  MOL2581     0.2052
  20744  O         62.1870  190.7750  160.0180 O.3   2582  MOL2582    -0.4105
  20745  H         61.2870  191.0960  160.2360 H     2582  MOL2582     0.2052
  20746  H         62.2820  189.8520  160.3700 H     2582  MOL2582     0.2052
  20747  O         51.5770  101.5550  250.9280 O.3   2583  MOL2583    -0.4105
  20748  H         51.0900  101.3750  251.7590 H     2583  MOL2583     0.2052
  20749  H         52.4360  101.9940  251.1600 H     2583  MOL2583     0.2052
  20750  O        163.4880   91.3610  298.9990 O.3   2584  MOL2584    -0.4105
  20751  H        163.8080   90.4370  298.9270 H     2584  MOL2584     0.2052
  20752  H        163.4440   91.5990  299.9620 H     2584  MOL2584     0.2052
  20753  O        124.2620   13.3410   55.4350 O.3   2585  MOL2585    -0.4105
  20754  H        123.8840   12.9280   54.6300 H     2585  MOL2585     0.2052
  20755  H        124.9830   12.7520   55.7770 H     2585  MOL2585     0.2052
  20756  O        155.4750  128.9910   25.6000 O.3   2586  MOL2586    -0.4105
  20757  H        155.5430  128.1370   26.0770 H     2586  MOL2586     0.2052
  20758  H        156.2690  129.5400   25.8310 H     2586  MOL2586     0.2052
  20759  O          1.4470   29.7430   64.1050 O.3   2587  MOL2587    -0.4105
  20760  H          0.8350   28.9850   64.0000 H     2587  MOL2587     0.2052
  20761  H          2.3700   29.4240   63.9320 H     2587  MOL2587     0.2052
  20762  O        193.0810    5.3010  176.0220 O.3   2588  MOL2588    -0.4105
  20763  H        193.8000    4.9210  176.5700 H     2588  MOL2588     0.2052
  20764  H        192.8280    4.6310  175.3350 H     2588  MOL2588     0.2052
  20765  O        121.3270  149.5460  200.0600 O.3   2589  MOL2589    -0.4105
  20766  H        122.0210  149.8580  200.6770 H     2589  MOL2589     0.2052
  20767  H        120.4970  149.3870  200.5800 H     2589  MOL2589     0.2052
  20768  O        150.2740  195.2360  116.1600 O.3   2590  MOL2590    -0.4105
  20769  H        151.2230  195.4830  116.1620 H     2590  MOL2590     0.2052
  20770  H        149.7570  195.9880  116.5490 H     2590  MOL2590     0.2052
  20771  O        188.4450  155.5800  294.9000 O.3   2591  MOL2591    -0.4105
  20772  H        187.6420  155.1170  294.5820 H     2591  MOL2591     0.2052
  20773  H        188.2740  155.8990  295.8240 H     2591  MOL2591     0.2052
  20774  O         42.8870  146.4050  299.3760 O.3   2592  MOL2592    -0.4105
  20775  H         43.2860  147.1810  299.8220 H     2592  MOL2592     0.2052
  20776  H         43.5090  145.6390  299.4710 H     2592  MOL2592     0.2052
  20777  O         92.5980  182.7520  270.4780 O.3   2593  MOL2593    -0.4105
  20778  H         92.3610  183.4190  269.8010 H     2593  MOL2593     0.2052
  20779  H         91.9570  182.8330  271.2310 H     2593  MOL2593     0.2052
  20780  O        182.9050   71.1320  284.2300 O.3   2594  MOL2594    -0.4105
  20781  H        183.8260   70.8040  284.2900 H     2594  MOL2594     0.2052
  20782  H        182.2960   70.3480  284.2220 H     2594  MOL2594     0.2052
  20783  O         37.2780   58.2490  234.0190 O.3   2595  MOL2595    -0.4105
  20784  H         38.1900   58.2150  234.3760 H     2595  MOL2595     0.2052
  20785  H         37.2320   58.9840  233.3540 H     2595  MOL2595     0.2052
  20786  O         52.7960  108.4960  209.6060 O.3   2596  MOL2596    -0.4105
  20787  H         53.7340  108.7760  209.5480 H     2596  MOL2596     0.2052
  20788  H         52.7590  107.5110  209.4940 H     2596  MOL2596     0.2052
  20789  O         18.5130   32.4740  289.4280 O.3   2597  MOL2597    -0.4105
  20790  H         17.6420   32.7860  289.1030 H     2597  MOL2597     0.2052
  20791  H         18.3970   31.5620  289.7990 H     2597  MOL2597     0.2052
  20792  O        156.5190   92.6180    5.5440 O.3   2598  MOL2598    -0.4105
  20793  H        157.2390   92.0820    5.1500 H     2598  MOL2598     0.2052
  20794  H        156.2390   92.1870    6.3930 H     2598  MOL2598     0.2052
  20795  O         41.2160    0.9000  110.3730 O.3   2599  MOL2599    -0.4105
  20796  H         42.0520    1.4060  110.2970 H     2599  MOL2599     0.2052
  20797  H         40.4600    1.5410  110.3290 H     2599  MOL2599     0.2052
  20798  O        107.7240   21.1960   79.5980 O.3   2600  MOL2600    -0.4105
  20799  H        107.0520   21.4270   80.2730 H     2600  MOL2600     0.2052
  20800  H        108.5750   20.9880   80.0640 H     2600  MOL2600     0.2052
  20801  O         75.1720   62.8850  183.9540 O.3   2601  MOL2601    -0.4105
  20802  H         74.5420   63.5200  184.3540 H     2601  MOL2601     0.2052
  20803  H         75.9300   63.3990  183.5720 H     2601  MOL2601     0.2052
  20804  O        133.7930   83.7440    1.3580 O.3   2602  MOL2602    -0.4105
  20805  H        133.7550   82.7720    1.2420 H     2602  MOL2602     0.2052
  20806  H        132.8640   84.0890    1.4000 H     2602  MOL2602     0.2052
  20807  O        108.0310    0.4430  120.8650 O.3   2603  MOL2603    -0.4105
  20808  H        108.2550    0.6210  119.9280 H     2603  MOL2603     0.2052
  20809  H        107.0420    0.4500  120.9550 H     2603  MOL2603     0.2052
  20810  O         52.4050  153.6180   43.2760 O.3   2604  MOL2604    -0.4105
  20811  H         51.5450  153.2790   43.6000 H     2604  MOL2604     0.2052
  20812  H         52.9850  153.7950   44.0620 H     2604  MOL2604     0.2052
  20813  O         53.5760   93.7680  204.0990 O.3   2605  MOL2605    -0.4105
  20814  H         54.0750   94.1470  203.3450 H     2605  MOL2605     0.2052
  20815  H         54.2130   93.2680  204.6720 H     2605  MOL2605     0.2052
  20816  O        187.0790   40.9670  212.4560 O.3   2606  MOL2606    -0.4105
  20817  H        186.6090   40.2720  211.9500 H     2606  MOL2606     0.2052
  20818  H        186.4130   41.6410  212.7500 H     2606  MOL2606     0.2052
  20819  O         29.1290  105.9650  127.0410 O.3   2607  MOL2607    -0.4105
  20820  H         28.1790  106.1640  126.9030 H     2607  MOL2607     0.2052
  20821  H         29.2320  105.5470  127.9350 H     2607  MOL2607     0.2052
  20822  O         63.1170   20.5550  115.4260 O.3   2608  MOL2608    -0.4105
  20823  H         62.4360   20.9780  115.9880 H     2608  MOL2608     0.2052
  20824  H         63.1860   19.6000  115.6870 H     2608  MOL2608     0.2052
  20825  O         85.8450  177.3980  138.1730 O.3   2609  MOL2609    -0.4105
  20826  H         86.5240  176.8770  138.6510 H     2609  MOL2609     0.2052
  20827  H         86.3090  178.0050  137.5400 H     2609  MOL2609     0.2052
  20828  O        159.9940  108.6140  113.1310 O.3   2610  MOL2610    -0.4105
  20829  H        160.7290  108.1750  112.6540 H     2610  MOL2610     0.2052
  20830  H        160.3470  109.4380  113.5560 H     2610  MOL2610     0.2052
  20831  O         94.4320  121.6250   44.7100 O.3   2611  MOL2611    -0.4105
  20832  H         94.4180  121.8670   43.7610 H     2611  MOL2611     0.2052
  20833  H         94.6110  120.6520   44.7800 H     2611  MOL2611     0.2052
  20834  O         84.9510   13.3270  230.1660 O.3   2612  MOL2612    -0.4105
  20835  H         84.9030   13.5250  229.2080 H     2612  MOL2612     0.2052
  20836  H         85.3480   12.4250  230.2780 H     2612  MOL2612     0.2052
  20837  O          6.8720   25.6190  285.8310 O.3   2613  MOL2613    -0.4105
  20838  H          6.6920   26.1030  286.6650 H     2613  MOL2613     0.2052
  20839  H          6.0220   25.2150  285.5170 H     2613  MOL2613     0.2052
  20840  O         76.4300   23.8660  236.7370 O.3   2614  MOL2614    -0.4105
  20841  H         76.9480   23.1100  237.0840 H     2614  MOL2614     0.2052
  20842  H         75.5310   23.5340  236.4780 H     2614  MOL2614     0.2052
  20843  O        186.2310  183.0430  147.6600 O.3   2615  MOL2615    -0.4105
  20844  H        186.5370  182.5580  146.8660 H     2615  MOL2615     0.2052
  20845  H        186.8680  183.7830  147.8370 H     2615  MOL2615     0.2052
  20846  O         95.8670    1.0790  287.0340 O.3   2616  MOL2616    -0.4105
  20847  H         96.7950    1.3960  287.0290 H     2616  MOL2616     0.2052
  20848  H         95.8780    0.0870  287.0410 H     2616  MOL2616     0.2052
  20849  O        108.9180   67.5220  226.0670 O.3   2617  MOL2617    -0.4105
  20850  H        108.7620   68.4760  225.9050 H     2617  MOL2617     0.2052
  20851  H        109.2130   67.1060  225.2160 H     2617  MOL2617     0.2052
  20852  O         76.1910   93.9670   11.1560 O.3   2618  MOL2618    -0.4105
  20853  H         77.0650   93.5550   10.9910 H     2618  MOL2618     0.2052
  20854  H         75.5970   93.2840   11.5620 H     2618  MOL2618     0.2052
  20855  O         93.7130  178.1380   19.6170 O.3   2619  MOL2619    -0.4105
  20856  H         93.0830  178.7110   20.1030 H     2619  MOL2619     0.2052
  20857  H         94.2650  178.7140   19.0270 H     2619  MOL2619     0.2052
  20858  O        188.9480  168.1620  290.8770 O.3   2620  MOL2620    -0.4105
  20859  H        188.4120  168.9260  290.5780 H     2620  MOL2620     0.2052
  20860  H        189.8930  168.4550  290.9460 H     2620  MOL2620     0.2052
  20861  O          2.5710   22.1590  214.1490 O.3   2621  MOL2621    -0.4105
  20862  H          2.0840   21.4200  214.5680 H     2621  MOL2621     0.2052
  20863  H          2.7970   22.8210  214.8530 H     2621  MOL2621     0.2052
  20864  O        118.7420   36.3240   18.4990 O.3   2622  MOL2622    -0.4105
  20865  H        119.2090   37.1850   18.5390 H     2622  MOL2622     0.2052
  20866  H        118.7950   35.8990   19.3940 H     2622  MOL2622     0.2052
  20867  O         95.2060  142.6200  164.8530 O.3   2623  MOL2623    -0.4105
  20868  H         95.2020  143.4730  165.3370 H     2623  MOL2623     0.2052
  20869  H         95.3740  142.8090  163.8930 H     2623  MOL2623     0.2052
  20870  O         28.0080  151.0020  170.7830 O.3   2624  MOL2624    -0.4105
  20871  H         28.2560  150.4870  171.5790 H     2624  MOL2624     0.2052
  20872  H         27.0740  151.3160  170.8940 H     2624  MOL2624     0.2052
  20873  O         58.0040   63.6600  281.6640 O.3   2625  MOL2625    -0.4105
  20874  H         58.8110   63.1160  281.7750 H     2625  MOL2625     0.2052
  20875  H         57.5720   63.7600  282.5520 H     2625  MOL2625     0.2052
  20876  O        193.3790  195.0980   64.7560 O.3   2626  MOL2626    -0.4105
  20877  H        192.8190  194.8480   63.9920 H     2626  MOL2626     0.2052
  20878  H        192.8960  195.7860   65.2830 H     2626  MOL2626     0.2052
  20879  O         31.8510    7.9510   66.3640 O.3   2627  MOL2627    -0.4105
  20880  H         31.0130    8.4520   66.4450 H     2627  MOL2627     0.2052
  20881  H         32.6040    8.5840   66.4940 H     2627  MOL2627     0.2052
  20882  O        169.3160  154.5780  206.7130 O.3   2628  MOL2628    -0.4105
  20883  H        169.4520  155.1140  205.9040 H     2628  MOL2628     0.2052
  20884  H        170.2060  154.2990  207.0540 H     2628  MOL2628     0.2052
  20885  O          2.1600   47.2610  208.4370 O.3   2629  MOL2629    -0.4105
  20886  H          2.6460   46.4720  208.7570 H     2629  MOL2629     0.2052
  20887  H          2.1590   47.9400  209.1610 H     2629  MOL2629     0.2052
  20888  O         22.4890   73.8310   19.1460 O.3   2630  MOL2630    -0.4105
  20889  H         22.1720   74.7560   19.2090 H     2630  MOL2630     0.2052
  20890  H         21.7480   73.2300   19.4190 H     2630  MOL2630     0.2052
  20891  O         45.5820    3.2850  112.9990 O.3   2631  MOL2631    -0.4105
  20892  H         45.2740    4.1400  112.6320 H     2631  MOL2631     0.2052
  20893  H         44.8300    2.6400  112.9560 H     2631  MOL2631     0.2052
  20894  O         52.7940   31.0440  111.6540 O.3   2632  MOL2632    -0.4105
  20895  H         52.9960   30.2670  112.2160 H     2632  MOL2632     0.2052
  20896  H         52.7170   31.8400  112.2410 H     2632  MOL2632     0.2052
  20897  O        165.6740   39.1320  180.1680 O.3   2633  MOL2633    -0.4105
  20898  H        166.5120   39.0910  179.6620 H     2633  MOL2633     0.2052
  20899  H        165.7700   39.8230  180.8730 H     2633  MOL2633     0.2052
  20900  O        151.8090  142.2530   20.2760 O.3   2634  MOL2634    -0.4105
  20901  H        151.2110  142.4310   21.0320 H     2634  MOL2634     0.2052
  20902  H        151.8820  141.2700   20.1640 H     2634  MOL2634     0.2052
  20903  O         66.3790   26.1120  232.0830 O.3   2635  MOL2635    -0.4105
  20904  H         65.8990   26.0460  231.2310 H     2635  MOL2635     0.2052
  20905  H         65.7330   26.3890  232.7830 H     2635  MOL2635     0.2052
  20906  O        142.7280   38.4910  291.8420 O.3   2636  MOL2636    -0.4105
  20907  H        141.7550   38.4080  291.7590 H     2636  MOL2636     0.2052
  20908  H        143.1350   37.6130  291.6230 H     2636  MOL2636     0.2052
  20909  O         93.3380  125.8950   30.8320 O.3   2637  MOL2637    -0.4105
  20910  H         92.3910  126.0660   30.6470 H     2637  MOL2637     0.2052
  20911  H         93.4370  124.9400   31.0830 H     2637  MOL2637     0.2052
  20912  O         36.7770  180.4880  154.3950 O.3   2638  MOL2638    -0.4105
  20913  H         36.7960  180.8900  155.2890 H     2638  MOL2638     0.2052
  20914  H         37.6830  180.5740  153.9970 H     2638  MOL2638     0.2052
  20915  O        160.8540   20.6880   65.4630 O.3   2639  MOL2639    -0.4105
  20916  H        161.6980   21.1650   65.6060 H     2639  MOL2639     0.2052
  20917  H        161.0570   19.7220   65.3610 H     2639  MOL2639     0.2052
  20918  O         72.7780  124.9530  259.5700 O.3   2640  MOL2640    -0.4105
  20919  H         72.3860  124.3660  260.2500 H     2640  MOL2640     0.2052
  20920  H         73.3050  124.3940  258.9430 H     2640  MOL2640     0.2052
  20921  O        104.2510  121.5380  222.5430 O.3   2641  MOL2641    -0.4105
  20922  H        103.4280  121.6260  222.0190 H     2641  MOL2641     0.2052
  20923  H        104.3580  120.5840  222.7950 H     2641  MOL2641     0.2052
  20924  O         23.1060  116.5920   89.4010 O.3   2642  MOL2642    -0.4105
  20925  H         23.5400  117.3250   88.9160 H     2642  MOL2642     0.2052
  20926  H         23.5830  115.7500   89.1800 H     2642  MOL2642     0.2052
  20927  O        196.0870   48.0450   44.8610 O.3   2643  MOL2643    -0.4105
  20928  H        195.1750   47.7060   44.9850 H     2643  MOL2643     0.2052
  20929  H        196.1310   48.9610   45.2390 H     2643  MOL2643     0.2052
  20930  O        134.9100   41.5610  103.4320 O.3   2644  MOL2644    -0.4105
  20931  H        135.1510   40.7880  103.9850 H     2644  MOL2644     0.2052
  20932  H        135.7440   42.0420  103.1920 H     2644  MOL2644     0.2052
  20933  O         36.3580  189.1420   49.7140 O.3   2645  MOL2645    -0.4105
  20934  H         36.2480  188.3920   50.3360 H     2645  MOL2645     0.2052
  20935  H         35.5360  189.6970   49.7490 H     2645  MOL2645     0.2052
  20936  O         31.0670  183.0750   59.0790 O.3   2646  MOL2646    -0.4105
  20937  H         31.9350  183.3980   59.3990 H     2646  MOL2646     0.2052
  20938  H         31.1780  182.1360   58.7770 H     2646  MOL2646     0.2052
  20939  O        142.1810   33.4750  263.6630 O.3   2647  MOL2647    -0.4105
  20940  H        142.3320   33.9980  262.8480 H     2647  MOL2647     0.2052
  20941  H        142.5750   32.5740  263.5310 H     2647  MOL2647     0.2052
  20942  O         45.2800  145.7060  240.1460 O.3   2648  MOL2648    -0.4105
  20943  H         44.4600  145.2640  239.8400 H     2648  MOL2648     0.2052
  20944  H         45.0860  146.6710  240.2670 H     2648  MOL2648     0.2052
  20945  O        168.0570   19.3470  179.1140 O.3   2649  MOL2649    -0.4105
  20946  H        168.7100   18.8600  178.5700 H     2649  MOL2649     0.2052
  20947  H        167.4780   18.6830  179.5720 H     2649  MOL2649     0.2052
  20948  O        183.9440  133.4670   64.0220 O.3   2650  MOL2650    -0.4105
  20949  H        184.9000  133.4860   63.8070 H     2650  MOL2650     0.2052
  20950  H        183.4680  133.0120   63.2790 H     2650  MOL2650     0.2052
  20951  O        101.3150    2.2690  135.9800 O.3   2651  MOL2651    -0.4105
  20952  H        100.6350    2.1850  136.6810 H     2651  MOL2651     0.2052
  20953  H        101.8830    1.4550  135.9990 H     2651  MOL2651     0.2052
  20954  O         99.0130   52.1510   43.9950 O.3   2652  MOL2652    -0.4105
  20955  H         98.4830   52.6110   44.6790 H     2652  MOL2652     0.2052
  20956  H         98.8390   51.1770   44.0720 H     2652  MOL2652     0.2052
  20957  O         47.9180   26.4740   54.5120 O.3   2653  MOL2653    -0.4105
  20958  H         48.8170   26.2160   54.8060 H     2653  MOL2653     0.2052
  20959  H         47.9430   27.4270   54.2360 H     2653  MOL2653     0.2052
  20960  O        167.9660   39.4730   18.3150 O.3   2654  MOL2654    -0.4105
  20961  H        168.3940   38.6840   18.7090 H     2654  MOL2654     0.2052
  20962  H        167.2560   39.7830   18.9350 H     2654  MOL2654     0.2052
  20963  O        142.3640   40.5910  164.4170 O.3   2655  MOL2655    -0.4105
  20964  H        142.8520   40.3000  163.6180 H     2655  MOL2655     0.2052
  20965  H        141.4000   40.6450  164.1900 H     2655  MOL2655     0.2052
  20966  O         55.7610   14.3150  120.5070 O.3   2656  MOL2656    -0.4105
  20967  H         56.0070   13.4820  120.9610 H     2656  MOL2656     0.2052
  20968  H         54.7760   14.3250  120.3890 H     2656  MOL2656     0.2052
  20969  O          1.7410   74.5260  178.0190 O.3   2657  MOL2657    -0.4105
  20970  H          0.8020   74.7930  178.1050 H     2657  MOL2657     0.2052
  20971  H          2.0960   74.3400  178.9260 H     2657  MOL2657     0.2052
  20972  O         12.9220  188.5620  144.0520 O.3   2658  MOL2658    -0.4105
  20973  H         12.3030  189.2910  143.8370 H     2658  MOL2658     0.2052
  20974  H         12.6460  188.1660  144.9190 H     2658  MOL2658     0.2052
  20975  O         24.4200   37.8940  182.9020 O.3   2659  MOL2659    -0.4105
  20976  H         24.7310   37.3930  183.6850 H     2659  MOL2659     0.2052
  20977  H         24.5160   38.8620  183.0950 H     2659  MOL2659     0.2052
  20978  O         55.9080   72.6660  264.1930 O.3   2660  MOL2660    -0.4105
  20979  H         56.1050   71.8060  264.6200 H     2660  MOL2660     0.2052
  20980  H         54.9340   72.8380  264.2770 H     2660  MOL2660     0.2052
  20981  O        149.7560    6.9960  276.3270 O.3   2661  MOL2661    -0.4105
  20982  H        150.4370    6.2920  276.3010 H     2661  MOL2661     0.2052
  20983  H        148.9210    6.6350  275.9300 H     2661  MOL2661     0.2052
  20984  O          1.8640  130.9080   30.1280 O.3   2662  MOL2662    -0.4105
  20985  H          2.6670  130.3480   30.1740 H     2662  MOL2662     0.2052
  20986  H          2.1510  131.8570   30.0770 H     2662  MOL2662     0.2052
  20987  O        186.8980   58.2720  272.1510 O.3   2663  MOL2663    -0.4105
  20988  H        186.5650   57.5530  271.5740 H     2663  MOL2663     0.2052
  20989  H        187.4930   58.8530  271.6100 H     2663  MOL2663     0.2052
  20990  O         45.9580  108.9230  232.4520 O.3   2664  MOL2664    -0.4105
  20991  H         46.6270  109.0620  231.7490 H     2664  MOL2664     0.2052
  20992  H         46.3340  109.2550  233.3080 H     2664  MOL2664     0.2052
  20993  O        182.4350  187.2340  221.7600 O.3   2665  MOL2665    -0.4105
  20994  H        181.6580  186.6380  221.7410 H     2665  MOL2665     0.2052
  20995  H        183.2540  186.6790  221.6800 H     2665  MOL2665     0.2052
  20996  O        156.1150  115.2260    6.7070 O.3   2666  MOL2666    -0.4105
  20997  H        155.6680  116.0180    6.3420 H     2666  MOL2666     0.2052
  20998  H        156.4150  115.4350    7.6290 H     2666  MOL2666     0.2052
  20999  O          0.9990   79.7700  184.0130 O.3   2667  MOL2667    -0.4105
  21000  H          1.3070   80.5950  183.5820 H     2667  MOL2667     0.2052
  21001  H          1.7500   79.1220  184.0140 H     2667  MOL2667     0.2052
  21002  O         53.8700    5.2860   68.9220 O.3   2668  MOL2668    -0.4105
  21003  H         54.2780    4.8730   69.7120 H     2668  MOL2668     0.2052
  21004  H         53.0620    4.7630   68.6810 H     2668  MOL2668     0.2052
  21005  O         72.9550    3.7220  154.3750 O.3   2669  MOL2669    -0.4105
  21006  H         72.0250    3.4140  154.3450 H     2669  MOL2669     0.2052
  21007  H         72.9530    4.7140  154.3780 H     2669  MOL2669     0.2052
  21008  O        178.5130  118.3820  208.8680 O.3   2670  MOL2670    -0.4105
  21009  H        179.3540  118.3240  208.3680 H     2670  MOL2670     0.2052
  21010  H        177.9590  119.0990  208.4620 H     2670  MOL2670     0.2052
  21011  O        182.7070  178.4200  215.0570 O.3   2671  MOL2671    -0.4105
  21012  H        182.4680  178.6060  215.9900 H     2671  MOL2671     0.2052
  21013  H        182.1490  177.6630  214.7390 H     2671  MOL2671     0.2052
  21014  O        162.3210   53.3190  160.3080 O.3   2672  MOL2672    -0.4105
  21015  H        162.8700   53.8100  160.9540 H     2672  MOL2672     0.2052
  21016  H        161.4600   53.8010  160.2030 H     2672  MOL2672     0.2052
  21017  O          7.3730   37.9680  101.9210 O.3   2673  MOL2673    -0.4105
  21018  H          7.8870   37.1710  102.1680 H     2673  MOL2673     0.2052
  21019  H          6.4140   37.7180  101.8780 H     2673  MOL2673     0.2052
  21020  O         58.0740  158.9900  178.3040 O.3   2674  MOL2674    -0.4105
  21021  H         57.3150  158.3700  178.3360 H     2674  MOL2674     0.2052
  21022  H         57.7180  159.9160  178.2900 H     2674  MOL2674     0.2052
  21023  O        111.2770  134.4910   45.2240 O.3   2675  MOL2675    -0.4105
  21024  H        110.9720  133.5680   45.3530 H     2675  MOL2675     0.2052
  21025  H        110.5520  134.9960   44.7720 H     2675  MOL2675     0.2052
  21026  O         56.3500   55.4500   11.4870 O.3   2676  MOL2676    -0.4105
  21027  H         55.8280   54.8110   12.0160 H     2676  MOL2676     0.2052
  21028  H         56.1980   56.3580   11.8580 H     2676  MOL2676     0.2052
  21029  O        165.3590   64.4400  236.5380 O.3   2677  MOL2677    -0.4105
  21030  H        164.9000   64.3780  235.6740 H     2677  MOL2677     0.2052
  21031  H        164.9560   63.7730  237.1520 H     2677  MOL2677     0.2052
  21032  O         88.2280   12.6470  214.3440 O.3   2678  MOL2678    -0.4105
  21033  H         88.8240   13.3860  214.1000 H     2678  MOL2678     0.2052
  21034  H         87.7960   12.3100  213.5170 H     2678  MOL2678     0.2052
  21035  O        130.4800  172.3790  155.5930 O.3   2679  MOL2679    -0.4105
  21036  H        130.5830  171.6190  156.2040 H     2679  MOL2679     0.2052
  21037  H        130.2310  172.0280  154.7000 H     2679  MOL2679     0.2052
  21038  O        118.3080   30.1710  215.7770 O.3   2680  MOL2680    -0.4105
  21039  H        119.0340   29.5120  215.7750 H     2680  MOL2680     0.2052
  21040  H        118.6430   31.0030  215.3520 H     2680  MOL2680     0.2052
  21041  O         77.0890  159.7870  253.4320 O.3   2681  MOL2681    -0.4105
  21042  H         76.3860  159.3040  252.9490 H     2681  MOL2681     0.2052
  21043  H         77.4700  159.1770  254.1160 H     2681  MOL2681     0.2052
  21044  O        152.6890   57.5950   26.6800 O.3   2682  MOL2682    -0.4105
  21045  H        151.8630   57.2760   27.1000 H     2682  MOL2682     0.2052
  21046  H        152.4450   58.1260   25.8780 H     2682  MOL2682     0.2052
  21047  O        169.3620    2.1190  238.8430 O.3   2683  MOL2683    -0.4105
  21048  H        169.6220    1.2260  238.5370 H     2683  MOL2683     0.2052
  21049  H        170.1260    2.5120  239.3400 H     2683  MOL2683     0.2052
  21050  O         37.0670  193.2470   97.6850 O.3   2684  MOL2684    -0.4105
  21051  H         37.1250  192.3850   98.1480 H     2684  MOL2684     0.2052
  21052  H         37.6870  193.2260   96.9100 H     2684  MOL2684     0.2052
  21053  O        103.9190  160.8230   31.2680 O.3   2685  MOL2685    -0.4105
  21054  H        103.7960  161.7600   31.5260 H     2685  MOL2685     0.2052
  21055  H        104.7010  160.7670   30.6610 H     2685  MOL2685     0.2052
  21056  O        188.8530    8.3890   25.1420 O.3   2686  MOL2686    -0.4105
  21057  H        189.8210    8.2860   25.0280 H     2686  MOL2686     0.2052
  21058  H        188.4560    7.4870   25.2550 H     2686  MOL2686     0.2052
  21059  O         32.6300    3.9980   90.4200 O.3   2687  MOL2687    -0.4105
  21060  H         33.4010    4.5740   90.6060 H     2687  MOL2687     0.2052
  21061  H         31.8150    4.5640   90.4120 H     2687  MOL2687     0.2052
  21062  O        114.5280   17.2470  240.5440 O.3   2688  MOL2688    -0.4105
  21063  H        115.4710   17.1630  240.2890 H     2688  MOL2688     0.2052
  21064  H        113.9820   16.7530  239.8790 H     2688  MOL2688     0.2052
  21065  O         54.3550   10.4580  126.7320 O.3   2689  MOL2689    -0.4105
  21066  H         54.6000    9.6950  127.2970 H     2689  MOL2689     0.2052
  21067  H         53.9370   11.1490  127.3080 H     2689  MOL2689     0.2052
  21068  O        135.6370  198.3180  259.5640 O.3   2690  MOL2690    -0.4105
  21069  H        136.0970  197.6610  259.0010 H     2690  MOL2690     0.2052
  21070  H        135.2320  199.0040  258.9730 H     2690  MOL2690     0.2052
  21071  O         50.8690  175.7520   27.0090 O.3   2691  MOL2691    -0.4105
  21072  H         51.5500  175.0720   27.1940 H     2691  MOL2691     0.2052
  21073  H         51.2870  176.6460   27.1130 H     2691  MOL2691     0.2052
  21074  O         14.0130  168.2880  215.2460 O.3   2692  MOL2692    -0.4105
  21075  H         13.7300  167.3690  215.0590 H     2692  MOL2692     0.2052
  21076  H         14.9170  168.4190  214.8570 H     2692  MOL2692     0.2052
  21077  O         36.8210   43.3610  153.4400 O.3   2693  MOL2693    -0.4105
  21078  H         36.7190   42.3860  153.4390 H     2693  MOL2693     0.2052
  21079  H         37.7480   43.5760  153.7190 H     2693  MOL2693     0.2052
  21080  O         39.3780   82.0050  241.9610 O.3   2694  MOL2694    -0.4105
  21081  H         38.6170   81.6080  241.4870 H     2694  MOL2694     0.2052
  21082  H         39.2030   81.9420  242.9360 H     2694  MOL2694     0.2052
  21083  O         67.6600  162.5980  194.5100 O.3   2695  MOL2695    -0.4105
  21084  H         67.6370  161.7090  194.0970 H     2695  MOL2695     0.2052
  21085  H         66.7280  162.9290  194.5850 H     2695  MOL2695     0.2052
  21086  O         95.3520  166.5420   51.8680 O.3   2696  MOL2696    -0.4105
  21087  H         96.1890  166.7780   52.3200 H     2696  MOL2696     0.2052
  21088  H         94.5970  166.7990   52.4590 H     2696  MOL2696     0.2052
  21089  O        154.4500   32.2860  224.3480 O.3   2697  MOL2697    -0.4105
  21090  H        155.2600   31.8520  224.6890 H     2697  MOL2697     0.2052
  21091  H        154.6970   33.1900  224.0210 H     2697  MOL2697     0.2052
  21092  O        107.8070   87.0010   33.3180 O.3   2698  MOL2698    -0.4105
  21093  H        107.2670   86.5520   32.6350 H     2698  MOL2698     0.2052
  21094  H        108.2850   87.7570   32.8880 H     2698  MOL2698     0.2052
  21095  O        167.9180  179.2000   27.6000 O.3   2699  MOL2699    -0.4105
  21096  H        167.1200  178.6360   27.6620 H     2699  MOL2699     0.2052
  21097  H        167.6270  180.1490   27.5880 H     2699  MOL2699     0.2052
  21098  O         22.0950   81.7280  134.8320 O.3   2700  MOL2700    -0.4105
  21099  H         21.3930   82.3970  134.9690 H     2700  MOL2700     0.2052
  21100  H         21.7950   80.8740  135.2390 H     2700  MOL2700     0.2052
  21101  O        179.1310  178.4380  131.5310 O.3   2701  MOL2701    -0.4105
  21102  H        179.2140  177.9550  132.3800 H     2701  MOL2701     0.2052
  21103  H        178.1760  178.4310  131.2620 H     2701  MOL2701     0.2052
  21104  O        110.9670  198.3740  141.4710 O.3   2702  MOL2702    -0.4105
  21105  H        111.8840  198.0820  141.6580 H     2702  MOL2702     0.2052
  21106  H        110.3880  197.5690  141.4270 H     2702  MOL2702     0.2052
  21107  O         33.7900  194.4220  202.8020 O.3   2703  MOL2703    -0.4105
  21108  H         33.0650  194.6370  202.1790 H     2703  MOL2703     0.2052
  21109  H         34.1330  195.2710  203.1840 H     2703  MOL2703     0.2052
  21110  O        168.0410   92.9330  142.4530 O.3   2704  MOL2704    -0.4105
  21111  H        167.9340   92.2400  143.1380 H     2704  MOL2704     0.2052
  21112  H        167.1920   93.0000  141.9440 H     2704  MOL2704     0.2052
  21113  O         11.4000   93.1740   76.0520 O.3   2705  MOL2705    -0.4105
  21114  H         11.2470   92.3570   76.5720 H     2705  MOL2705     0.2052
  21115  H         12.2440   93.5900   76.3690 H     2705  MOL2705     0.2052
  21116  O         53.2970  189.9300  253.3880 O.3   2706  MOL2706    -0.4105
  21117  H         53.8540  189.4710  252.7250 H     2706  MOL2706     0.2052
  21118  H         53.8490  190.6270  253.8280 H     2706  MOL2706     0.2052
  21119  O        123.1890  183.8670   22.1600 O.3   2707  MOL2707    -0.4105
  21120  H        122.8010  184.7620   22.2540 H     2707  MOL2707     0.2052
  21121  H        122.4520  183.2040   22.1860 H     2707  MOL2707     0.2052
  21122  O         74.6950   42.8100  233.9320 O.3   2708  MOL2708    -0.4105
  21123  H         75.4270   43.4590  233.9930 H     2708  MOL2708     0.2052
  21124  H         73.8460   43.3100  233.8140 H     2708  MOL2708     0.2052
  21125  O        166.2800   28.8620  137.4680 O.3   2709  MOL2709    -0.4105
  21126  H        167.1940   28.5080  137.4810 H     2709  MOL2709     0.2052
  21127  H        165.6510   28.0950  137.4510 H     2709  MOL2709     0.2052
  21128  O        151.2560  126.2060   58.8160 O.3   2710  MOL2710    -0.4105
  21129  H        150.8610  126.9200   59.3580 H     2710  MOL2710     0.2052
  21130  H        150.5200  125.6700   58.4220 H     2710  MOL2710     0.2052
  21131  O        103.4880   48.0210   52.7910 O.3   2711  MOL2711    -0.4105
  21132  H        102.7800   48.6150   52.4660 H     2711  MOL2711     0.2052
  21133  H        104.3580   48.3640   52.4610 H     2711  MOL2711     0.2052
  21134  O         55.9030   92.0280  234.7510 O.3   2712  MOL2712    -0.4105
  21135  H         56.4060   92.2060  235.5730 H     2712  MOL2712     0.2052
  21136  H         54.9350   92.0920  234.9590 H     2712  MOL2712     0.2052
  21137  O         35.1100  164.8870  182.7860 O.3   2713  MOL2713    -0.4105
  21138  H         34.8070  165.1050  181.8800 H     2713  MOL2713     0.2052
  21139  H         35.1040  165.7210  183.3240 H     2713  MOL2713     0.2052
  21140  O         96.1050   28.7630  124.4970 O.3   2714  MOL2714    -0.4105
  21141  H         95.2180   29.1690  124.4080 H     2714  MOL2714     0.2052
  21142  H         96.4060   28.4740  123.5970 H     2714  MOL2714     0.2052
  21143  O        171.7820   99.1120  255.5590 O.3   2715  MOL2715    -0.4105
  21144  H        171.8510   98.1500  255.7320 H     2715  MOL2715     0.2052
  21145  H        172.6850   99.5110  255.6580 H     2715  MOL2715     0.2052
  21146  O        108.8420  150.1510  213.5110 O.3   2716  MOL2716    -0.4105
  21147  H        108.0940  149.5190  213.4660 H     2716  MOL2716     0.2052
  21148  H        109.4980  149.8090  214.1720 H     2716  MOL2716     0.2052
  21149  O        160.0040   52.9460   27.4160 O.3   2717  MOL2717    -0.4105
  21150  H        160.3810   53.6540   27.9780 H     2717  MOL2717     0.2052
  21151  H        159.0280   53.1020   27.3330 H     2717  MOL2717     0.2052
  21152  O          8.8290   70.2830   46.9360 O.3   2718  MOL2718    -0.4105
  21153  H          8.5920   70.5410   46.0200 H     2718  MOL2718     0.2052
  21154  H          8.0430   70.4480   47.5180 H     2718  MOL2718     0.2052
  21155  O        160.1330   50.7950  186.9710 O.3   2719  MOL2719    -0.4105
  21156  H        160.8310   51.4830  186.9810 H     2719  MOL2719     0.2052
  21157  H        160.5730   49.9060  186.9360 H     2719  MOL2719     0.2052
  21158  O         93.1600   47.7690  266.9250 O.3   2720  MOL2720    -0.4105
  21159  H         92.5690   47.9460  267.6870 H     2720  MOL2720     0.2052
  21160  H         93.9390   48.3810  266.9870 H     2720  MOL2720     0.2052
  21161  O         64.4340   30.5030  212.2900 O.3   2721  MOL2721    -0.4105
  21162  H         64.1120   30.7420  213.1840 H     2721  MOL2721     0.2052
  21163  H         63.9950   29.6550  212.0180 H     2721  MOL2721     0.2052
  21164  O         58.2100   56.3620   38.9920 O.3   2722  MOL2722    -0.4105
  21165  H         58.8580   57.0160   39.3290 H     2722  MOL2722     0.2052
  21166  H         58.0560   55.6850   39.7010 H     2722  MOL2722     0.2052
  21167  O        184.3910  136.0240    9.9330 O.3   2723  MOL2723    -0.4105
  21168  H        184.4740  135.8370    8.9750 H     2723  MOL2723     0.2052
  21169  H        183.4370  136.2150   10.1300 H     2723  MOL2723     0.2052
  21170  O        152.2120   81.6150  220.1890 O.3   2724  MOL2724    -0.4105
  21171  H        152.4970   80.9750  220.8750 H     2724  MOL2724     0.2052
  21172  H        151.6690   82.3190  220.6280 H     2724  MOL2724     0.2052
  21173  O         45.7570  154.2170  191.8650 O.3   2725  MOL2725    -0.4105
  21174  H         44.9410  153.8880  192.2980 H     2725  MOL2725     0.2052
  21175  H         45.6380  155.1830  191.6720 H     2725  MOL2725     0.2052
  21176  O         59.8460   31.2380  260.9560 O.3   2726  MOL2726    -0.4105
  21177  H         60.4910   30.8440  261.5790 H     2726  MOL2726     0.2052
  21178  H         59.5780   32.1260  261.3070 H     2726  MOL2726     0.2052
  21179  O        162.9950  106.8170  194.4520 O.3   2727  MOL2727    -0.4105
  21180  H        163.2840  107.2740  193.6350 H     2727  MOL2727     0.2052
  21181  H        163.5850  106.0320  194.5940 H     2727  MOL2727     0.2052
  21182  O        138.3810   40.7050  129.4460 O.3   2728  MOL2728    -0.4105
  21183  H        139.3610   40.7160  129.4520 H     2728  MOL2728     0.2052
  21184  H        138.0590   41.5990  129.7310 H     2728  MOL2728     0.2052
  21185  O        153.9480   74.9180  228.2280 O.3   2729  MOL2729    -0.4105
  21186  H        154.8730   74.7880  228.5250 H     2729  MOL2729     0.2052
  21187  H        153.8420   74.4820  227.3430 H     2729  MOL2729     0.2052
  21188  O         45.1120   13.9320   20.5460 O.3   2730  MOL2730    -0.4105
  21189  H         44.3610   13.6200   21.0940 H     2730  MOL2730     0.2052
  21190  H         45.9330   13.4660   20.8510 H     2730  MOL2730     0.2052
  21191  O        168.7000   25.3970   17.3120 O.3   2731  MOL2731    -0.4105
  21192  H        169.6060   25.3120   17.6780 H     2731  MOL2731     0.2052
  21193  H        168.7640   25.8350   16.4240 H     2731  MOL2731     0.2052
  21194  O        162.0870  199.0420  106.2280 O.3   2732  MOL2732    -0.4105
  21195  H        161.4540  198.5800  105.6390 H     2732  MOL2732     0.2052
  21196  H        162.5210  198.3650  106.8100 H     2732  MOL2732     0.2052
  21197  O         88.4510  138.9800   29.3680 O.3   2733  MOL2733    -0.4105
  21198  H         87.8170  139.5490   28.8830 H     2733  MOL2733     0.2052
  21199  H         88.4560  138.0850   28.9400 H     2733  MOL2733     0.2052
  21200  O        124.4370   13.2700   46.6740 O.3   2734  MOL2734    -0.4105
  21201  H        125.2660   13.0750   47.1590 H     2734  MOL2734     0.2052
  21202  H        124.5330   14.1550   46.2370 H     2734  MOL2734     0.2052
  21203  O         63.4130   80.9410  245.0630 O.3   2735  MOL2735    -0.4105
  21204  H         62.5870   80.4920  244.7890 H     2735  MOL2735     0.2052
  21205  H         63.9690   80.2910  245.5660 H     2735  MOL2735     0.2052
  21206  O        161.3070  107.7820  246.5040 O.3   2736  MOL2736    -0.4105
  21207  H        161.7770  108.4190  247.0820 H     2736  MOL2736     0.2052
  21208  H        160.9310  108.2800  245.7330 H     2736  MOL2736     0.2052
  21209  O         71.9280  143.9060  237.1550 O.3   2737  MOL2737    -0.4105
  21210  H         71.5700  144.1990  236.2910 H     2737  MOL2737     0.2052
  21211  H         71.7250  144.6060  237.8290 H     2737  MOL2737     0.2052
  21212  O        125.4640   25.8260  208.1440 O.3   2738  MOL2738    -0.4105
  21213  H        125.0750   26.6250  207.7310 H     2738  MOL2738     0.2052
  21214  H        124.7380   25.1640  208.2830 H     2738  MOL2738     0.2052
  21215  O         77.4310   26.8270    2.1450 O.3   2739  MOL2739    -0.4105
  21216  H         76.4520   26.8670    2.1640 H     2739  MOL2739     0.2052
  21217  H         77.6990   25.9020    1.9030 H     2739  MOL2739     0.2052
  21218  O        119.2890   37.9650  174.0110 O.3   2740  MOL2740    -0.4105
  21219  H        119.2800   37.0380  173.6940 H     2740  MOL2740     0.2052
  21220  H        120.2230   38.2980  173.9700 H     2740  MOL2740     0.2052
  21221  O        191.4260  179.4180  241.4890 O.3   2741  MOL2741    -0.4105
  21222  H        192.1160  180.0130  241.1280 H     2741  MOL2741     0.2052
  21223  H        191.8760  178.6440  241.9170 H     2741  MOL2741     0.2052
  21224  O        170.9930  141.9070  204.5820 O.3   2742  MOL2742    -0.4105
  21225  H        170.1690  142.4370  204.5780 H     2742  MOL2742     0.2052
  21226  H        171.7640  142.5300  204.5320 H     2742  MOL2742     0.2052
  21227  O         10.2200   34.8170  178.6330 O.3   2743  MOL2743    -0.4105
  21228  H          9.8310   34.8490  177.7340 H     2743  MOL2743     0.2052
  21229  H         11.1800   35.0580  178.5650 H     2743  MOL2743     0.2052
  21230  O        139.6590  156.2270  168.8910 O.3   2744  MOL2744    -0.4105
  21231  H        139.8070  155.2590  168.8930 H     2744  MOL2744     0.2052
  21232  H        140.0200  156.5980  169.7380 H     2744  MOL2744     0.2052
  21233  O         83.4220   78.9440  200.6200 O.3   2745  MOL2745    -0.4105
  21234  H         82.5050   78.6180  200.7330 H     2745  MOL2745     0.2052
  21235  H         83.3820   79.9130  200.4070 H     2745  MOL2745     0.2052
  21236  O          6.2040  141.9560  223.6050 O.3   2746  MOL2746    -0.4105
  21237  H          6.0700  141.3560  224.3680 H     2746  MOL2746     0.2052
  21238  H          6.5280  142.8290  223.9490 H     2746  MOL2746     0.2052
  21239  O         30.9130  110.5460   95.6130 O.3   2747  MOL2747    -0.4105
  21240  H         30.6590  111.4010   96.0190 H     2747  MOL2747     0.2052
  21241  H         31.8740  110.5920   95.3680 H     2747  MOL2747     0.2052
  21242  O         55.9980  129.8720  270.9900 O.3   2748  MOL2748    -0.4105
  21243  H         56.4360  129.3900  271.7230 H     2748  MOL2748     0.2052
  21244  H         56.6970  130.3460  270.4690 H     2748  MOL2748     0.2052
  21245  O        171.5310  174.8240   44.5770 O.3   2749  MOL2749    -0.4105
  21246  H        170.8670  174.4330   45.1840 H     2749  MOL2749     0.2052
  21247  H        172.1490  174.1030   44.2890 H     2749  MOL2749     0.2052
  21248  O          2.3130  177.5640  126.0850 O.3   2750  MOL2750    -0.4105
  21249  H          3.0910  178.1530  125.9940 H     2750  MOL2750     0.2052
  21250  H          1.8180  177.8270  126.9040 H     2750  MOL2750     0.2052
  21251  O         89.5890  137.5070  183.8960 O.3   2751  MOL2751    -0.4105
  21252  H         88.7430  137.9950  183.9760 H     2751  MOL2751     0.2052
  21253  H         90.3320  138.1430  184.0640 H     2751  MOL2751     0.2052
  21254  O        194.3830  187.9260  192.5550 O.3   2752  MOL2752    -0.4105
  21255  H        193.9110  187.3180  191.9480 H     2752  MOL2752     0.2052
  21256  H        194.4050  188.8260  192.1380 H     2752  MOL2752     0.2052
  21257  O        121.2270   18.7420   57.4640 O.3   2753  MOL2753    -0.4105
  21258  H        121.3710   18.7110   56.4950 H     2753  MOL2753     0.2052
  21259  H        121.0960   19.6900   57.7280 H     2753  MOL2753     0.2052
  21260  O         55.1850  109.2440   72.6290 O.3   2754  MOL2754    -0.4105
  21261  H         55.9280  108.6050   72.6300 H     2754  MOL2754     0.2052
  21262  H         55.4640  110.0470   73.1400 H     2754  MOL2754     0.2052
  21263  O        137.4610  170.2190   90.7700 O.3   2755  MOL2755    -0.4105
  21264  H        137.7020  169.2960   90.9950 H     2755  MOL2755     0.2052
  21265  H        137.3000  170.2690   89.7920 H     2755  MOL2755     0.2052
  21266  O        165.0540   26.6190   15.5540 O.3   2756  MOL2756    -0.4105
  21267  H        165.4370   25.8930   16.0890 H     2756  MOL2756     0.2052
  21268  H        165.3820   27.4810   15.9200 H     2756  MOL2756     0.2052
  21269  O         58.5950  168.1640  254.1320 O.3   2757  MOL2757    -0.4105
  21270  H         57.8060  168.7010  254.3540 H     2757  MOL2757     0.2052
  21271  H         58.3340  167.2070  254.1440 H     2757  MOL2757     0.2052
  21272  O        153.8150   32.8420   88.6210 O.3   2758  MOL2758    -0.4105
  21273  H        154.3890   33.6360   88.6340 H     2758  MOL2758     0.2052
  21274  H        152.9490   33.0920   88.2070 H     2758  MOL2758     0.2052
  21275  O         11.3920   30.8070  299.2670 O.3   2759  MOL2759    -0.4105
  21276  H         10.7040   31.3300  299.7290 H     2759  MOL2759     0.2052
  21277  H         11.1200   30.7050  298.3180 H     2759  MOL2759     0.2052
  21278  O        124.5450  170.2870   93.2600 O.3   2760  MOL2760    -0.4105
  21279  H        125.1900  170.9870   93.4920 H     2760  MOL2760     0.2052
  21280  H        125.0460  169.5110   92.8970 H     2760  MOL2760     0.2052
  21281  O        144.1720   65.5250  200.0960 O.3   2761  MOL2761    -0.4105
  21282  H        143.6980   65.7180  200.9310 H     2761  MOL2761     0.2052
  21283  H        144.7320   66.3110  199.8680 H     2761  MOL2761     0.2052
  21284  O        149.3350   49.6390  220.1910 O.3   2762  MOL2762    -0.4105
  21285  H        149.2440   48.7750  220.6440 H     2762  MOL2762     0.2052
  21286  H        150.2910   49.7680  219.9570 H     2762  MOL2762     0.2052
  21287  O         69.0510  151.0150   24.7970 O.3   2763  MOL2763    -0.4105
  21288  H         69.5730  150.2600   25.1400 H     2763  MOL2763     0.2052
  21289  H         68.1120  150.7160   24.6800 H     2763  MOL2763     0.2052
  21290  O        180.8920   78.3580   41.9430 O.3   2764  MOL2764    -0.4105
  21291  H        180.2910   79.0480   41.5930 H     2764  MOL2764     0.2052
  21292  H        180.4560   77.4750   41.8230 H     2764  MOL2764     0.2052
  21293  O        181.7870   81.3730   88.6370 O.3   2765  MOL2765    -0.4105
  21294  H        182.6280   81.1210   88.2020 H     2765  MOL2765     0.2052
  21295  H        181.0480   80.8820   88.1920 H     2765  MOL2765     0.2052
  21296  O          7.8500   53.4810  249.3670 O.3   2766  MOL2766    -0.4105
  21297  H          7.2730   54.2700  249.2870 H     2766  MOL2766     0.2052
  21298  H          8.7940   53.7850  249.3550 H     2766  MOL2766     0.2052
  21299  O          5.7490   62.4000  146.7390 O.3   2767  MOL2767    -0.4105
  21300  H          6.4950   62.5550  146.1230 H     2767  MOL2767     0.2052
  21301  H          5.1920   63.2210  146.7650 H     2767  MOL2767     0.2052
  21302  O         54.2780    8.3910   89.3360 O.3   2768  MOL2768    -0.4105
  21303  H         53.8710    7.5190   89.1510 H     2768  MOL2768     0.2052
  21304  H         54.9620    8.5690   88.6400 H     2768  MOL2768     0.2052
  21305  O         10.1500   24.6250   93.3650 O.3   2769  MOL2769    -0.4105
  21306  H          9.6120   25.3580   93.7300 H     2769  MOL2769     0.2052
  21307  H         10.6640   24.2160   94.1090 H     2769  MOL2769     0.2052
  21308  O         33.3670  160.6700  166.8060 O.3   2770  MOL2770    -0.4105
  21309  H         32.6960  159.9580  166.7450 H     2770  MOL2770     0.2052
  21310  H         32.9080  161.5400  166.6760 H     2770  MOL2770     0.2052
  21311  O         92.5670   99.9330  199.6820 O.3   2771  MOL2771    -0.4105
  21312  H         92.7630  100.5910  198.9820 H     2771  MOL2771     0.2052
  21313  H         91.7780  100.2500  200.1930 H     2771  MOL2771     0.2052
  21314  O        104.0570  173.7220  259.3910 O.3   2772  MOL2772    -0.4105
  21315  H        104.0980  174.3530  260.1400 H     2772  MOL2772     0.2052
  21316  H        103.9390  174.2420  258.5540 H     2772  MOL2772     0.2052
  21317  O        181.3510    0.1550  190.2290 O.3   2773  MOL2773    -0.4105
  21318  H        180.3800    0.0630  190.3200 H     2773  MOL2773     0.2052
  21319  H        181.5700    1.1230  190.1990 H     2773  MOL2773     0.2052
  21320  O        132.2890   42.2570  160.6170 O.3   2774  MOL2774    -0.4105
  21321  H        132.9330   41.9870  161.3050 H     2774  MOL2774     0.2052
  21322  H        131.5790   42.7960  161.0510 H     2774  MOL2774     0.2052
  21323  O        181.7750  117.8460  263.0000 O.3   2775  MOL2775    -0.4105
  21324  H        180.9060  117.3980  263.0670 H     2775  MOL2775     0.2052
  21325  H        182.0760  117.8000  262.0560 H     2775  MOL2775     0.2052
  21326  O        122.9690  168.0170  113.0610 O.3   2776  MOL2776    -0.4105
  21327  H        123.2820  168.7480  113.6340 H     2776  MOL2776     0.2052
  21328  H        122.7160  168.3990  112.1810 H     2776  MOL2776     0.2052
  21329  O         84.9740  115.1100   13.6590 O.3   2777  MOL2777    -0.4105
  21330  H         85.3580  114.6520   12.8820 H     2777  MOL2777     0.2052
  21331  H         85.4570  115.9670   13.7860 H     2777  MOL2777     0.2052
  21332  O         30.4020  100.7640  101.3870 O.3   2778  MOL2778    -0.4105
  21333  H         29.6730  101.3510  101.6780 H     2778  MOL2778     0.2052
  21334  H         30.1710   99.8330  101.6410 H     2778  MOL2778     0.2052
  21335  O         16.2560   32.2930  213.2670 O.3   2779  MOL2779    -0.4105
  21336  H         16.9670   32.8990  213.5620 H     2779  MOL2779     0.2052
  21337  H         16.6750   31.4440  212.9690 H     2779  MOL2779     0.2052
  21338  O         61.8910   92.1190   27.7080 O.3   2780  MOL2780    -0.4105
  21339  H         62.5080   91.3650   27.8080 H     2780  MOL2780     0.2052
  21340  H         60.9740   91.7580   27.5980 H     2780  MOL2780     0.2052
  21341  O         43.7990  151.8150  217.0950 O.3   2781  MOL2781    -0.4105
  21342  H         44.0970  151.8440  216.1620 H     2781  MOL2781     0.2052
  21343  H         44.0690  150.9420  217.4800 H     2781  MOL2781     0.2052
  21344  O        168.1780   61.0830  288.9880 O.3   2782  MOL2782    -0.4105
  21345  H        168.1970   60.8850  289.9480 H     2782  MOL2782     0.2052
  21346  H        168.2090   60.2240  288.4930 H     2782  MOL2782     0.2052
  21347  O        116.1170  177.8330  215.4480 O.3   2783  MOL2783    -0.4105
  21348  H        116.6500  178.5760  215.8020 H     2783  MOL2783     0.2052
  21349  H        116.0540  177.1340  216.1490 H     2783  MOL2783     0.2052
  21350  O          2.2280  125.8400  207.3260 O.3   2784  MOL2784    -0.4105
  21351  H          2.4430  126.4710  208.0440 H     2784  MOL2784     0.2052
  21352  H          2.4520  126.2670  206.4590 H     2784  MOL2784     0.2052
  21353  O        124.3720  171.2310  294.9420 O.3   2785  MOL2785    -0.4105
  21354  H        124.3120  170.4010  294.4240 H     2785  MOL2785     0.2052
  21355  H        124.5280  170.9930  295.8930 H     2785  MOL2785     0.2052
  21356  O         38.1830   84.1010  204.2980 O.3   2786  MOL2786    -0.4105
  21357  H         38.9790   84.0760  203.7270 H     2786  MOL2786     0.2052
  21358  H         38.2200   83.3260  204.9170 H     2786  MOL2786     0.2052
  21359  O         89.5440   71.3140  277.0060 O.3   2787  MOL2787    -0.4105
  21360  H         90.5070   71.4360  276.8730 H     2787  MOL2787     0.2052
  21361  H         89.1240   72.2100  277.0740 H     2787  MOL2787     0.2052
  21362  O        165.6960  190.9810  257.0850 O.3   2788  MOL2788    -0.4105
  21363  H        166.5520  191.4470  256.9840 H     2788  MOL2788     0.2052
  21364  H        164.9940  191.5200  256.6390 H     2788  MOL2788     0.2052
  21365  O         51.2080   74.6040   21.2630 O.3   2789  MOL2789    -0.4105
  21366  H         52.0840   74.6720   21.6970 H     2789  MOL2789     0.2052
  21367  H         50.8730   73.6780   21.3830 H     2789  MOL2789     0.2052
  21368  O         60.4090  169.8720  117.6460 O.3   2790  MOL2790    -0.4105
  21369  H         61.0600  169.1470  117.7470 H     2790  MOL2790     0.2052
  21370  H         59.5040  169.5040  117.8200 H     2790  MOL2790     0.2052
  21371  O        181.3660   95.1660  287.5640 O.3   2791  MOL2791    -0.4105
  21372  H        181.2080   95.0540  286.6030 H     2791  MOL2791     0.2052
  21373  H        180.9950   96.0440  287.8400 H     2791  MOL2791     0.2052
  21374  O         94.9600  174.1970   42.6460 O.3   2792  MOL2792    -0.4105
  21375  H         94.3070  174.2580   41.9170 H     2792  MOL2792     0.2052
  21376  H         95.6370  174.9110   42.5170 H     2792  MOL2792     0.2052
  21377  O         36.5170  183.8100  111.3860 O.3   2793  MOL2793    -0.4105
  21378  H         37.3860  183.9030  110.9430 H     2793  MOL2793     0.2052
  21379  H         36.0620  183.0110  111.0130 H     2793  MOL2793     0.2052
  21380  O         13.1340  192.7050  166.8080 O.3   2794  MOL2794    -0.4105
  21381  H         13.8170  193.4070  166.8010 H     2794  MOL2794     0.2052
  21382  H         12.2420  193.1390  166.8050 H     2794  MOL2794     0.2052
  21383  O         31.9270  152.7810  214.0640 O.3   2795  MOL2795    -0.4105
  21384  H         31.9330  153.6640  214.4910 H     2795  MOL2795     0.2052
  21385  H         30.9970  152.4380  214.0740 H     2795  MOL2795     0.2052
  21386  O        197.5340   78.9160   19.7030 O.3   2796  MOL2796    -0.4105
  21387  H        196.7950   79.0560   20.3320 H     2796  MOL2796     0.2052
  21388  H        197.7630   77.9500   19.7040 H     2796  MOL2796     0.2052
  21389  O         48.3080   52.0780    8.3960 O.3   2797  MOL2797    -0.4105
  21390  H         47.4530   52.4030    8.7500 H     2797  MOL2797     0.2052
  21391  H         48.9930   52.7800    8.5480 H     2797  MOL2797     0.2052
  21392  O         31.4910   93.2410  243.8070 O.3   2798  MOL2798    -0.4105
  21393  H         32.3180   92.7560  244.0090 H     2798  MOL2798     0.2052
  21394  H         30.7400   92.5930  243.8190 H     2798  MOL2798     0.2052
  21395  O         11.9330   79.4000   23.6260 O.3   2799  MOL2799    -0.4105
  21396  H         11.3740   78.7090   24.0400 H     2799  MOL2799     0.2052
  21397  H         11.5050   80.2810   23.7840 H     2799  MOL2799     0.2052
  21398  O        137.3790  103.2860  176.8280 O.3   2800  MOL2800    -0.4105
  21399  H        136.5140  102.8330  176.7500 H     2800  MOL2800     0.2052
  21400  H        138.0850  102.5940  176.9180 H     2800  MOL2800     0.2052
  21401  O        133.4570   19.9210  246.8510 O.3   2801  MOL2801    -0.4105
  21402  H        134.1250   20.6380  246.8450 H     2801  MOL2801     0.2052
  21403  H        132.5550   20.3360  246.8360 H     2801  MOL2801     0.2052
  21404  O        134.2490   60.4640  271.2870 O.3   2802  MOL2802    -0.4105
  21405  H        133.7130   60.6980  270.5010 H     2802  MOL2802     0.2052
  21406  H        133.6450   60.4220  272.0730 H     2802  MOL2802     0.2052
  21407  O        164.2270   76.2780   32.3670 O.3   2803  MOL2803    -0.4105
  21408  H        163.2580   76.1300   32.3710 H     2803  MOL2803     0.2052
  21409  H        164.6760   75.3940   32.3620 H     2803  MOL2803     0.2052
  21410  O         46.3810  118.8640   25.0570 O.3   2804  MOL2804    -0.4105
  21411  H         46.5010  118.0770   25.6290 H     2804  MOL2804     0.2052
  21412  H         46.7680  119.6490   25.5250 H     2804  MOL2804     0.2052
  21413  O         67.2560   54.6670  243.4640 O.3   2805  MOL2805    -0.4105
  21414  H         66.8100   53.8580  243.1380 H     2805  MOL2805     0.2052
  21415  H         68.0830   54.3950  243.9400 H     2805  MOL2805     0.2052
  21416  O        187.1570  165.7760   12.1240 O.3   2806  MOL2806    -0.4105
  21417  H        186.7570  166.6270   12.3980 H     2806  MOL2806     0.2052
  21418  H        188.0940  165.9480   11.8450 H     2806  MOL2806     0.2052
  21419  O        174.4660  163.2690   84.6500 O.3   2807  MOL2807    -0.4105
  21420  H        175.2300  162.6590   84.7160 H     2807  MOL2807     0.2052
  21421  H        173.6780  162.7480   84.3480 H     2807  MOL2807     0.2052
  21422  O         40.5390   69.2220  265.7010 O.3   2808  MOL2808    -0.4105
  21423  H         41.2310   69.0520  266.3750 H     2808  MOL2808     0.2052
  21424  H         39.6520   69.0980  266.1290 H     2808  MOL2808     0.2052
  21425  O        151.5840  157.1500  137.6490 O.3   2809  MOL2809    -0.4105
  21426  H        152.2100  156.4100  137.5030 H     2809  MOL2809     0.2052
  21427  H        151.2650  157.1070  138.5870 H     2809  MOL2809     0.2052
  21428  O         79.8660   23.1340  204.2610 O.3   2810  MOL2810    -0.4105
  21429  H         79.3290   22.3550  204.0050 H     2810  MOL2810     0.2052
  21430  H         79.2520   23.8390  204.5920 H     2810  MOL2810     0.2052
  21431  O        147.2190   78.0900  204.0850 O.3   2811  MOL2811    -0.4105
  21432  H        146.9300   78.1190  203.1490 H     2811  MOL2811     0.2052
  21433  H        146.4110   78.0800  204.6600 H     2811  MOL2811     0.2052
  21434  O        120.6650   98.7970   72.9640 O.3   2812  MOL2812    -0.4105
  21435  H        120.2680   99.6690   72.7580 H     2812  MOL2812     0.2052
  21436  H        121.6070   98.9420   73.2390 H     2812  MOL2812     0.2052
  21437  O        104.1110  123.7180  268.9030 O.3   2813  MOL2813    -0.4105
  21438  H        103.6570  124.4950  269.2910 H     2813  MOL2813     0.2052
  21439  H        103.9650  123.7310  267.9220 H     2813  MOL2813     0.2052
  21440  O         63.3000  124.3900  236.3110 O.3   2814  MOL2814    -0.4105
  21441  H         63.9670  125.1050  236.3790 H     2814  MOL2814     0.2052
  21442  H         63.7670  123.5200  236.4050 H     2814  MOL2814     0.2052
  21443  O        172.5330   80.0870  114.9470 O.3   2815  MOL2815    -0.4105
  21444  H        173.4740   79.8210  115.0230 H     2815  MOL2815     0.2052
  21445  H        172.1430   79.6260  114.1600 H     2815  MOL2815     0.2052
  21446  O         45.4600  150.3580   84.8940 O.3   2816  MOL2816    -0.4105
  21447  H         46.2950  150.8710   84.9150 H     2816  MOL2816     0.2052
  21448  H         44.7040  150.9970   84.8230 H     2816  MOL2816     0.2052
  21449  O        118.7960   15.5150  133.2240 O.3   2817  MOL2817    -0.4105
  21450  H        119.2930   15.0410  133.9230 H     2817  MOL2817     0.2052
  21451  H        118.5140   14.8540  132.5400 H     2817  MOL2817     0.2052
  21452  O         57.9900   36.3840  265.7460 O.3   2818  MOL2818    -0.4105
  21453  H         58.8500   36.8150  265.9320 H     2818  MOL2818     0.2052
  21454  H         57.3870   37.0570  265.3370 H     2818  MOL2818     0.2052
  21455  O         14.8020  168.1510   13.3650 O.3   2819  MOL2819    -0.4105
  21456  H         15.6950  168.4730   13.6060 H     2819  MOL2819     0.2052
  21457  H         14.2340  168.9380   13.1550 H     2819  MOL2819     0.2052
  21458  O         83.3740    2.4280  122.7330 O.3   2820  MOL2820    -0.4105
  21459  H         83.3950    2.1590  121.7910 H     2820  MOL2820     0.2052
  21460  H         84.2190    2.1310  123.1600 H     2820  MOL2820     0.2052
  21461  O         83.6950  110.3130  188.6790 O.3   2821  MOL2821    -0.4105
  21462  H         83.8150  111.2800  188.5750 H     2821  MOL2821     0.2052
  21463  H         84.5860  109.9050  188.8340 H     2821  MOL2821     0.2052
  21464  O         34.5790  189.2100   95.1780 O.3   2822  MOL2822    -0.4105
  21465  H         35.2590  188.6570   94.7400 H     2822  MOL2822     0.2052
  21466  H         34.8850  190.1530   95.1560 H     2822  MOL2822     0.2052
  21467  O         96.3120   76.3260   58.0130 O.3   2823  MOL2823    -0.4105
  21468  H         96.9170   76.9990   58.3890 H     2823  MOL2823     0.2052
  21469  H         95.5770   76.1730   58.6620 H     2823  MOL2823     0.2052
  21470  O        198.0340   57.7610   16.5510 O.3   2824  MOL2824    -0.4105
  21471  H        198.9090   57.6790   16.9840 H     2824  MOL2824     0.2052
  21472  H        197.9180   56.9880   15.9390 H     2824  MOL2824     0.2052
  21473  O         79.1580   10.3940  209.3150 O.3   2825  MOL2825    -0.4105
  21474  H         78.8450   10.8770  208.5220 H     2825  MOL2825     0.2052
  21475  H         80.0730   10.7110  209.5310 H     2825  MOL2825     0.2052
  21476  O         43.4450   87.1470   52.8540 O.3   2826  MOL2826    -0.4105
  21477  H         44.2130   87.1730   53.4620 H     2826  MOL2826     0.2052
  21478  H         43.6060   87.7980   52.1220 H     2826  MOL2826     0.2052
  21479  O         47.8050  143.2790  162.5540 O.3   2827  MOL2827    -0.4105
  21480  H         47.8290  144.1670  162.1410 H     2827  MOL2827     0.2052
  21481  H         47.8920  143.3900  163.5360 H     2827  MOL2827     0.2052
  21482  O        159.6760   49.3250  203.3550 O.3   2828  MOL2828    -0.4105
  21483  H        159.6170   50.1680  203.8500 H     2828  MOL2828     0.2052
  21484  H        160.6240   49.0310  203.3550 H     2828  MOL2828     0.2052
  21485  O        183.7930   85.9270    8.5440 O.3   2829  MOL2829    -0.4105
  21486  H        184.4370   85.2550    8.2360 H     2829  MOL2829     0.2052
  21487  H        184.2610   86.8010    8.6010 H     2829  MOL2829     0.2052
  21488  O        184.1620  113.6440  127.6620 O.3   2830  MOL2830    -0.4105
  21489  H        184.3130  112.7720  127.2390 H     2830  MOL2830     0.2052
  21490  H        184.9070  114.2470  127.4040 H     2830  MOL2830     0.2052
  21491  O        117.5950  186.9120   94.6510 O.3   2831  MOL2831    -0.4105
  21492  H        118.3780  187.0900   95.2130 H     2831  MOL2831     0.2052
  21493  H        117.6450  187.5010   93.8540 H     2831  MOL2831     0.2052
  21494  O         81.1940  197.1320  289.6740 O.3   2832  MOL2832    -0.4105
  21495  H         80.8290  196.3810  289.1610 H     2832  MOL2832     0.2052
  21496  H         82.1650  197.1970  289.4800 H     2832  MOL2832     0.2052
  21497  O         26.0780  153.3680  110.3560 O.3   2833  MOL2833    -0.4105
  21498  H         25.3060  153.5750  110.9230 H     2833  MOL2833     0.2052
  21499  H         25.8420  153.5860  109.4170 H     2833  MOL2833     0.2052
  21500  O          8.1020   59.2950  157.3610 O.3   2834  MOL2834    -0.4105
  21501  H          8.3210   58.9760  156.4610 H     2834  MOL2834     0.2052
  21502  H          8.0960   60.2870  157.3470 H     2834  MOL2834     0.2052
  21503  O         73.1780  153.5720  173.7630 O.3   2835  MOL2835    -0.4105
  21504  H         73.3100  152.9610  173.0090 H     2835  MOL2835     0.2052
  21505  H         74.0650  153.7660  174.1640 H     2835  MOL2835     0.2052
  21506  O        176.4850  106.0020  111.4970 O.3   2836  MOL2836    -0.4105
  21507  H        177.3270  105.5080  111.4110 H     2836  MOL2836     0.2052
  21508  H        176.6680  106.9610  111.3180 H     2836  MOL2836     0.2052
  21509  O        128.9540   25.9940  135.9240 O.3   2837  MOL2837    -0.4105
  21510  H        128.8730   26.9680  135.8530 H     2837  MOL2837     0.2052
  21511  H        128.0810   25.6320  136.2260 H     2837  MOL2837     0.2052
  21512  O         24.2720  192.7380  167.1150 O.3   2838  MOL2838    -0.4105
  21513  H         23.8850  191.8420  167.0250 H     2838  MOL2838     0.2052
  21514  H         24.7660  192.9490  166.2800 H     2838  MOL2838     0.2052
  21515  O        189.2950    2.1220  176.2010 O.3   2839  MOL2839    -0.4105
  21516  H        189.0940    3.0810  176.1810 H     2839  MOL2839     0.2052
  21517  H        188.5310    1.6540  176.6260 H     2839  MOL2839     0.2052
  21518  O        125.7180  184.1550  116.6200 O.3   2840  MOL2840    -0.4105
  21519  H        126.1260  185.0270  116.8060 H     2840  MOL2840     0.2052
  21520  H        126.2500  183.7100  115.9100 H     2840  MOL2840     0.2052
  21521  O         18.9230   12.5480  189.5970 O.3   2841  MOL2841    -0.4105
  21522  H         18.3520   13.2240  190.0170 H     2841  MOL2841     0.2052
  21523  H         19.8570   12.7010  189.8970 H     2841  MOL2841     0.2052
  21524  O        167.0490   99.2210  194.6200 O.3   2842  MOL2842    -0.4105
  21525  H        166.3220   99.8220  194.8860 H     2842  MOL2842     0.2052
  21526  H        166.7760   98.7510  193.7900 H     2842  MOL2842     0.2052
  21527  O        172.4040   46.2550   45.3950 O.3   2843  MOL2843    -0.4105
  21528  H        172.7120   46.5070   46.2910 H     2843  MOL2843     0.2052
  21529  H        172.9280   46.7720   44.7300 H     2843  MOL2843     0.2052
  21530  O        128.6540  168.3100  118.4800 O.3   2844  MOL2844    -0.4105
  21531  H        128.4330  169.2480  118.3020 H     2844  MOL2844     0.2052
  21532  H        129.5380  168.1170  118.0720 H     2844  MOL2844     0.2052
  21533  O        172.6080  165.1940  267.9580 O.3   2845  MOL2845    -0.4105
  21534  H        172.9320  164.3230  267.6470 H     2845  MOL2845     0.2052
  21535  H        171.8090  165.4370  267.4220 H     2845  MOL2845     0.2052
  21536  O         23.9270  130.5900  129.9080 O.3   2846  MOL2846    -0.4105
  21537  H         23.3750  130.3800  130.6900 H     2846  MOL2846     0.2052
  21538  H         24.4010  129.7630  129.6310 H     2846  MOL2846     0.2052
  21539  O        155.0470   16.2110   36.7540 O.3   2847  MOL2847    -0.4105
  21540  H        154.3190   15.5990   36.9920 H     2847  MOL2847     0.2052
  21541  H        155.3740   16.6430   37.5860 H     2847  MOL2847     0.2052
  21542  O        177.9830  189.0390   45.3480 O.3   2848  MOL2848    -0.4105
  21543  H        177.0800  189.4190   45.3560 H     2848  MOL2848     0.2052
  21544  H        177.9040  188.0500   45.3580 H     2848  MOL2848     0.2052
  21545  O        192.6720   52.3220   67.3830 O.3   2849  MOL2849    -0.4105
  21546  H        191.7610   52.1330   67.6900 H     2849  MOL2849     0.2052
  21547  H        192.7480   53.2980   67.2200 H     2849  MOL2849     0.2052
  21548  O         50.2250   71.6650   61.3020 O.3   2850  MOL2850    -0.4105
  21549  H         49.3560   71.2160   61.2370 H     2850  MOL2850     0.2052
  21550  H         50.0790   72.6400   61.1900 H     2850  MOL2850     0.2052
  21551  O        187.3450  181.0410   88.8910 O.3   2851  MOL2851    -0.4105
  21552  H        186.5430  180.6600   89.3060 H     2851  MOL2851     0.2052
  21553  H        188.1310  180.7860   89.4410 H     2851  MOL2851     0.2052
  21554  O        170.4810   93.8450   73.9120 O.3   2852  MOL2852    -0.4105
  21555  H        171.3400   93.6640   74.3480 H     2852  MOL2852     0.2052
  21556  H        170.0450   92.9760   73.7130 H     2852  MOL2852     0.2052
  21557  O         62.9620   87.3040   15.1230 O.3   2853  MOL2853    -0.4105
  21558  H         62.7590   86.3480   15.0550 H     2853  MOL2853     0.2052
  21559  H         62.1040   87.8020   15.1570 H     2853  MOL2853     0.2052
  21560  O        105.3820  195.0190  159.8120 O.3   2854  MOL2854    -0.4105
  21561  H        104.6600  195.6140  160.1050 H     2854  MOL2854     0.2052
  21562  H        105.8340  195.4380  159.0340 H     2854  MOL2854     0.2052
  21563  O        108.2990   49.5290  234.9520 O.3   2855  MOL2855    -0.4105
  21564  H        109.1250   49.9750  235.2330 H     2855  MOL2855     0.2052
  21565  H        108.4520   49.1260  234.0580 H     2855  MOL2855     0.2052
  21566  O         96.8840  157.1640  247.7670 O.3   2856  MOL2856    -0.4105
  21567  H         97.0030  157.8400  248.4660 H     2856  MOL2856     0.2052
  21568  H         97.4230  157.4340  246.9790 H     2856  MOL2856     0.2052
  21569  O        176.6500    2.9920   20.3240 O.3   2857  MOL2857    -0.4105
  21570  H        175.9460    2.4660   19.8920 H     2857  MOL2857     0.2052
  21571  H        177.3770    3.1390   19.6640 H     2857  MOL2857     0.2052
  21572  O         22.9360  190.4290  228.8490 O.3   2858  MOL2858    -0.4105
  21573  H         22.9970  189.8740  229.6550 H     2858  MOL2858     0.2052
  21574  H         23.8060  190.3830  228.3750 H     2858  MOL2858     0.2052
  21575  O         88.3740   48.1470  283.6140 O.3   2859  MOL2859    -0.4105
  21576  H         89.2520   47.7280  283.7270 H     2859  MOL2859     0.2052
  21577  H         88.1240   48.0910  282.6560 H     2859  MOL2859     0.2052
  21578  O         19.0940   53.8910    9.5360 O.3   2860  MOL2860    -0.4105
  21579  H         18.8870   53.1420    8.9390 H     2860  MOL2860     0.2052
  21580  H         19.4630   54.6310    8.9880 H     2860  MOL2860     0.2052
  21581  O        185.9980  164.1600  128.2990 O.3   2861  MOL2861    -0.4105
  21582  H        186.8530  163.8090  127.9710 H     2861  MOL2861     0.2052
  21583  H        185.2860  163.8870  127.6650 H     2861  MOL2861     0.2052
  21584  O        140.1170   14.1010  287.7100 O.3   2862  MOL2862    -0.4105
  21585  H        140.3310   15.0170  287.4360 H     2862  MOL2862     0.2052
  21586  H        140.6450   13.8890  288.5230 H     2862  MOL2862     0.2052
  21587  O        112.8160  145.2460  293.7990 O.3   2863  MOL2863    -0.4105
  21588  H        113.5420  145.8330  293.5000 H     2863  MOL2863     0.2052
  21589  H        112.0470  145.8140  294.0650 H     2863  MOL2863     0.2052
  21590  O        135.8750   37.6560  296.4380 O.3   2864  MOL2864    -0.4105
  21591  H        135.6440   37.4730  297.3720 H     2864  MOL2864     0.2052
  21592  H        135.1240   38.1540  296.0230 H     2864  MOL2864     0.2052
  21593  O         75.8210  136.3920  231.9970 O.3   2865  MOL2865    -0.4105
  21594  H         76.7210  136.0120  232.0670 H     2865  MOL2865     0.2052
  21595  H         75.3480  136.2290  232.8540 H     2865  MOL2865     0.2052
  21596  O        168.6020  198.9010   62.3020 O.3   2866  MOL2866    -0.4105
  21597  H        167.8460  198.8620   62.9250 H     2866  MOL2866     0.2052
  21598  H        168.7870  199.8550   62.0980 H     2866  MOL2866     0.2052
  21599  O         38.2820  168.1990   73.6000 O.3   2867  MOL2867    -0.4105
  21600  H         38.2220  167.7020   74.4430 H     2867  MOL2867     0.2052
  21601  H         39.1570  168.6660   73.5770 H     2867  MOL2867     0.2052
  21602  O          4.9220   74.9150   58.9070 O.3   2868  MOL2868    -0.4105
  21603  H          5.6380   75.1110   59.5470 H     2868  MOL2868     0.2052
  21604  H          4.5210   75.7750   58.6170 H     2868  MOL2868     0.2052
  21605  O         82.0340  193.2950  253.2580 O.3   2869  MOL2869    -0.4105
  21606  H         82.8910  193.1920  252.7930 H     2869  MOL2869     0.2052
  21607  H         82.2030  193.7570  254.1200 H     2869  MOL2869     0.2052
  21608  O         97.0220  147.5440  231.4220 O.3   2870  MOL2870    -0.4105
  21609  H         96.7590  147.9010  230.5480 H     2870  MOL2870     0.2052
  21610  H         96.6790  146.6160  231.4940 H     2870  MOL2870     0.2052
  21611  O        166.0300  139.5130    6.8330 O.3   2871  MOL2871    -0.4105
  21612  H        165.9020  138.5490    6.9610 H     2871  MOL2871     0.2052
  21613  H        165.6000  139.7720    5.9770 H     2871  MOL2871     0.2052
  21614  O        129.5570  148.3800   41.5640 O.3   2872  MOL2872    -0.4105
  21615  H        130.4120  148.8430   41.4370 H     2872  MOL2872     0.2052
  21616  H        128.9610  148.6160   40.8070 H     2872  MOL2872     0.2052
  21617  O         45.2100  136.3180  222.0700 O.3   2873  MOL2873    -0.4105
  21618  H         45.4840  135.3990  221.8650 H     2873  MOL2873     0.2052
  21619  H         44.5920  136.2920  222.8450 H     2873  MOL2873     0.2052
  21620  O        169.0720    3.7480  250.1280 O.3   2874  MOL2874    -0.4105
  21621  H        168.6370    3.0010  249.6650 H     2874  MOL2874     0.2052
  21622  H        169.0530    4.5380  249.5280 H     2874  MOL2874     0.2052
  21623  O         78.4120   58.1420    2.4530 O.3   2875  MOL2875    -0.4105
  21624  H         79.1750   58.7550    2.5150 H     2875  MOL2875     0.2052
  21625  H         77.5920   58.6390    2.7080 H     2875  MOL2875     0.2052
  21626  O         50.6140  107.1420  224.6410 O.3   2876  MOL2876    -0.4105
  21627  H         50.1020  107.5980  225.3420 H     2876  MOL2876     0.2052
  21628  H         51.5720  107.3730  224.7560 H     2876  MOL2876     0.2052
  21629  O        136.0940  145.4880  262.8930 O.3   2877  MOL2877    -0.4105
  21630  H        135.8900  146.4300  263.0710 H     2877  MOL2877     0.2052
  21631  H        135.2450  145.0220  262.6770 H     2877  MOL2877     0.2052
  21632  O        172.9440   25.2680  102.1170 O.3   2878  MOL2878    -0.4105
  21633  H        172.2370   24.7350  102.5360 H     2878  MOL2878     0.2052
  21634  H        173.0380   26.1150  102.6260 H     2878  MOL2878     0.2052
  21635  O         24.2110   31.7340  292.4900 O.3   2879  MOL2879    -0.4105
  21636  H         24.6570   30.8620  292.4490 H     2879  MOL2879     0.2052
  21637  H         23.2800   31.5920  292.8030 H     2879  MOL2879     0.2052
  21638  O         26.5350  144.3970   62.7200 O.3   2880  MOL2880    -0.4105
  21639  H         27.0360  145.2390   62.7200 H     2880  MOL2880     0.2052
  21640  H         27.1850  143.6490   62.6720 H     2880  MOL2880     0.2052
  21641  O        129.4010  197.7180   18.3130 O.3   2881  MOL2881    -0.4105
  21642  H        129.2180  197.3230   17.4350 H     2881  MOL2881     0.2052
  21643  H        130.2420  198.2410   18.2480 H     2881  MOL2881     0.2052
  21644  O         20.7100  137.8650   49.6910 O.3   2882  MOL2882    -0.4105
  21645  H         20.6500  137.3640   48.8510 H     2882  MOL2882     0.2052
  21646  H         21.0770  138.7650   49.4900 H     2882  MOL2882     0.2052
  21647  O          5.5620   17.5920  287.0280 O.3   2883  MOL2883    -0.4105
  21648  H          5.1960   18.2600  287.6440 H     2883  MOL2883     0.2052
  21649  H          5.1410   17.7250  286.1390 H     2883  MOL2883     0.2052
  21650  O         57.0230  198.9820  222.2210 O.3   2884  MOL2884    -0.4105
  21651  H         57.5240  199.7500  222.5680 H     2884  MOL2884     0.2052
  21652  H         57.5150  198.6170  221.4410 H     2884  MOL2884     0.2052
  21653  O        169.7230    7.7740  281.4180 O.3   2885  MOL2885    -0.4105
  21654  H        170.6230    8.1630  281.4100 H     2885  MOL2885     0.2052
  21655  H        169.6180    7.2180  280.6030 H     2885  MOL2885     0.2052
  21656  O        127.9940   24.2630    2.9930 O.3   2886  MOL2886    -0.4105
  21657  H        127.3080   23.5760    2.8590 H     2886  MOL2886     0.2052
  21658  H        127.5410   25.1410    3.0860 H     2886  MOL2886     0.2052
  21659  O        172.7880   77.9310  264.0480 O.3   2887  MOL2887    -0.4105
  21660  H        172.1960   77.1850  264.2820 H     2887  MOL2887     0.2052
  21661  H        172.2420   78.6350  263.6120 H     2887  MOL2887     0.2052
  21662  O          6.5810  162.4950   12.8730 O.3   2888  MOL2888    -0.4105
  21663  H          7.1310  163.3060   12.8380 H     2888  MOL2888     0.2052
  21664  H          7.1850  161.7150   12.9800 H     2888  MOL2888     0.2052
  21665  O        165.1520   67.0410  212.5490 O.3   2889  MOL2889    -0.4105
  21666  H        164.3400   66.4930  212.5560 H     2889  MOL2889     0.2052
  21667  H        164.9010   67.9650  212.2880 H     2889  MOL2889     0.2052
  21668  O        126.1280  175.1250   36.3570 O.3   2890  MOL2890    -0.4105
  21669  H        125.2720  174.7030   36.1380 H     2890  MOL2890     0.2052
  21670  H        126.0810  176.0800   36.0910 H     2890  MOL2890     0.2052
  21671  O         82.1830   64.9510  273.3420 O.3   2891  MOL2891    -0.4105
  21672  H         82.7580   64.1600  273.2840 H     2891  MOL2891     0.2052
  21673  H         82.7630   65.7500  273.4350 H     2891  MOL2891     0.2052
  21674  O        186.9900   45.1740   24.1900 O.3   2892  MOL2892    -0.4105
  21675  H        186.7770   44.7540   25.0500 H     2892  MOL2892     0.2052
  21676  H        187.5660   45.9620   24.3640 H     2892  MOL2892     0.2052
  21677  O        102.7950   49.8370  187.5760 O.3   2893  MOL2893    -0.4105
  21678  H        101.8830   50.1610  187.4270 H     2893  MOL2893     0.2052
  21679  H        103.4240   50.5820  187.3880 H     2893  MOL2893     0.2052
  21680  O        121.8250  129.7170  191.1560 O.3   2894  MOL2894    -0.4105
  21681  H        121.4970  130.3810  191.7980 H     2894  MOL2894     0.2052
  21682  H        122.6920  129.3670  191.4880 H     2894  MOL2894     0.2052
  21683  O        142.6900  194.9720  294.6440 O.3   2895  MOL2895    -0.4105
  21684  H        141.9800  195.2640  294.0350 H     2895  MOL2895     0.2052
  21685  H        143.5650  195.1970  294.2330 H     2895  MOL2895     0.2052
  21686  O          4.3270  120.6340  226.0510 O.3   2896  MOL2896    -0.4105
  21687  H          3.8320  119.8060  225.8770 H     2896  MOL2896     0.2052
  21688  H          3.6960  121.3950  225.9770 H     2896  MOL2896     0.2052
  21689  O        147.2490  127.9620   52.7850 O.3   2897  MOL2897    -0.4105
  21690  H        147.5190  128.9040   52.7910 H     2897  MOL2897     0.2052
  21691  H        148.0700  127.4040   52.8010 H     2897  MOL2897     0.2052
  21692  O         76.0830   95.7970  183.2420 O.3   2898  MOL2898    -0.4105
  21693  H         75.3420   95.6980  182.6070 H     2898  MOL2898     0.2052
  21694  H         76.0980   94.9970  183.8280 H     2898  MOL2898     0.2052
  21695  O        178.7120  132.4460  244.1190 O.3   2899  MOL2899    -0.4105
  21696  H        178.3470  133.1000  244.7510 H     2899  MOL2899     0.2052
  21697  H        178.1090  132.4050  243.3320 H     2899  MOL2899     0.2052
  21698  O        156.5960  170.2650  295.3430 O.3   2900  MOL2900    -0.4105
  21699  H        155.6610  169.9710  295.3350 H     2900  MOL2900     0.2052
  21700  H        157.1750  169.4600  295.3220 H     2900  MOL2900     0.2052
  21701  O         68.2700   80.2100  284.1320 O.3   2901  MOL2901    -0.4105
  21702  H         67.3020   80.0930  284.0370 H     2901  MOL2901     0.2052
  21703  H         68.4690   81.1820  284.1110 H     2901  MOL2901     0.2052
  21704  O        117.3870  174.4910   86.9060 O.3   2902  MOL2902    -0.4105
  21705  H        117.6050  173.6790   87.4110 H     2902  MOL2902     0.2052
  21706  H        117.9510  175.2310   87.2500 H     2902  MOL2902     0.2052
  21707  O        155.0700    7.2460   32.9270 O.3   2903  MOL2903    -0.4105
  21708  H        155.9150    6.7900   32.7320 H     2903  MOL2903     0.2052
  21709  H        154.3300    6.5970   32.7980 H     2903  MOL2903     0.2052
  21710  O        146.4080  155.1840  260.3150 O.3   2904  MOL2904    -0.4105
  21711  H        145.8210  154.6810  259.7140 H     2904  MOL2904     0.2052
  21712  H        147.1350  154.5800  260.6160 H     2904  MOL2904     0.2052
  21713  O        167.6280  114.7890   30.7630 O.3   2905  MOL2905    -0.4105
  21714  H        168.2380  114.1260   30.3760 H     2905  MOL2905     0.2052
  21715  H        168.1530  115.3800   31.3620 H     2905  MOL2905     0.2052
  21716  O         63.1130  190.8580   68.7490 O.3   2906  MOL2906    -0.4105
  21717  H         63.4160  189.9640   68.4860 H     2906  MOL2906     0.2052
  21718  H         62.1210  190.8530   68.7810 H     2906  MOL2906     0.2052
  21719  O        146.2030   59.4010  290.5000 O.3   2907  MOL2907    -0.4105
  21720  H        146.9200   59.8480  290.0040 H     2907  MOL2907     0.2052
  21721  H        146.1720   59.7850  291.4140 H     2907  MOL2907     0.2052
  21722  O         50.2700   22.9440   97.8570 O.3   2908  MOL2908    -0.4105
  21723  H         49.6710   23.1510   98.6050 H     2908  MOL2908     0.2052
  21724  H         50.5970   23.7990   97.4750 H     2908  MOL2908     0.2052
  21725  O        169.9400   20.8700  239.2920 O.3   2909  MOL2909    -0.4105
  21726  H        169.0870   20.3990  239.1810 H     2909  MOL2909     0.2052
  21727  H        169.7560   21.7500  239.7130 H     2909  MOL2909     0.2052
  21728  O        111.6490   34.6710    9.1460 O.3   2910  MOL2910    -0.4105
  21729  H        111.9340   35.2900    8.4420 H     2910  MOL2910     0.2052
  21730  H        112.0010   35.0030   10.0130 H     2910  MOL2910     0.2052
  21731  O         73.7580   12.9070  254.1160 O.3   2911  MOL2911    -0.4105
  21732  H         74.6160   12.5000  254.3560 H     2911  MOL2911     0.2052
  21733  H         73.9020   13.4930  253.3280 H     2911  MOL2911     0.2052
  21734  O        159.0490   81.5070   74.9700 O.3   2912  MOL2912    -0.4105
  21735  H        159.6100   82.2570   75.2560 H     2912  MOL2912     0.2052
  21736  H        159.2800   81.2870   74.0310 H     2912  MOL2912     0.2052
  21737  O         35.6410  177.1150   60.9800 O.3   2913  MOL2913    -0.4105
  21738  H         34.7760  177.5690   61.0570 H     2913  MOL2913     0.2052
  21739  H         35.4760  176.1380   60.9320 H     2913  MOL2913     0.2052
  21740  O         90.7070   23.7960  201.2730 O.3   2914  MOL2914    -0.4105
  21741  H         91.0490   24.6810  201.0280 H     2914  MOL2914     0.2052
  21742  H         89.7170   23.8180  201.2140 H     2914  MOL2914     0.2052
  21743  O        155.2690  149.7920   20.0530 O.3   2915  MOL2915    -0.4105
  21744  H        154.3640  149.6820   19.6930 H     2915  MOL2915     0.2052
  21745  H        155.4900  150.7590   20.0470 H     2915  MOL2915     0.2052
  21746  O        183.6410  175.2230  292.4230 O.3   2916  MOL2916    -0.4105
  21747  H        184.4090  175.7290  292.0830 H     2916  MOL2916     0.2052
  21748  H        183.7060  174.2940  292.0800 H     2916  MOL2916     0.2052
  21749  O        195.9450   39.9960  176.5460 O.3   2917  MOL2917    -0.4105
  21750  H        195.3150   40.5460  176.0360 H     2917  MOL2917     0.2052
  21751  H        195.4770   39.6510  177.3500 H     2917  MOL2917     0.2052
  21752  O        159.4410  129.4930  284.1150 O.3   2918  MOL2918    -0.4105
  21753  H        159.5290  129.7640  285.0530 H     2918  MOL2918     0.2052
  21754  H        160.2800  129.0370  283.8430 H     2918  MOL2918     0.2052
  21755  O        172.9680  179.4680  154.4190 O.3   2919  MOL2919    -0.4105
  21756  H        172.3300  179.9420  153.8460 H     2919  MOL2919     0.2052
  21757  H        173.2690  180.0910  155.1300 H     2919  MOL2919     0.2052
  21758  O        111.9220   83.6360  168.1460 O.3   2920  MOL2920    -0.4105
  21759  H        112.6100   83.4440  168.8170 H     2920  MOL2920     0.2052
  21760  H        111.9360   84.6100  167.9570 H     2920  MOL2920     0.2052
  21761  O         89.4210  187.9180  251.7590 O.3   2921  MOL2921    -0.4105
  21762  H         89.7320  188.4240  252.5390 H     2921  MOL2921     0.2052
  21763  H         89.7400  186.9820  251.8490 H     2921  MOL2921     0.2052
  21764  O        176.8460   95.1300  166.1150 O.3   2922  MOL2922    -0.4105
  21765  H        176.3320   94.2960  166.0950 H     2922  MOL2922     0.2052
  21766  H        177.8090   94.8990  166.1840 H     2922  MOL2922     0.2052
  21767  O         25.3180  129.2450  133.5480 O.3   2923  MOL2923    -0.4105
  21768  H         24.6590  129.9420  133.7500 H     2923  MOL2923     0.2052
  21769  H         25.1080  128.4490  134.1020 H     2923  MOL2923     0.2052
  21770  O         64.2140  133.7530  193.1030 O.3   2924  MOL2924    -0.4105
  21771  H         65.1480  133.4630  193.1630 H     2924  MOL2924     0.2052
  21772  H         64.1880  134.7400  193.2020 H     2924  MOL2924     0.2052
  21773  O        156.1460   33.6630  187.6330 O.3   2925  MOL2925    -0.4105
  21774  H        156.0560   32.6880  187.6860 H     2925  MOL2925     0.2052
  21775  H        157.1130   33.8840  187.6140 H     2925  MOL2925     0.2052
  21776  O         67.4740  191.9650  100.0850 O.3   2926  MOL2926    -0.4105
  21777  H         68.1980  191.3780   99.7830 H     2926  MOL2926     0.2052
  21778  H         66.6630  191.4110  100.2240 H     2926  MOL2926     0.2052
  21779  O        156.2980   97.3150  131.8470 O.3   2927  MOL2927    -0.4105
  21780  H        155.6430   98.0290  131.6980 H     2927  MOL2927     0.2052
  21781  H        157.0910   97.4980  131.2790 H     2927  MOL2927     0.2052
  21782  O        127.2870   77.6240  259.5410 O.3   2928  MOL2928    -0.4105
  21783  H        127.0540   76.8050  259.0550 H     2928  MOL2928     0.2052
  21784  H        127.4050   78.3540  258.8790 H     2928  MOL2928     0.2052
  21785  O        142.5270  105.8000  204.6080 O.3   2929  MOL2929    -0.4105
  21786  H        141.8610  105.1600  204.2800 H     2929  MOL2929     0.2052
  21787  H        142.0490  106.6070  204.9310 H     2929  MOL2929     0.2052
  21788  O        187.6220   61.8150   32.6770 O.3   2930  MOL2930    -0.4105
  21789  H        187.9180   60.9100   32.4460 H     2930  MOL2930     0.2052
  21790  H        186.6920   61.9300   32.3500 H     2930  MOL2930     0.2052
  21791  O         79.8230  118.4020  199.2970 O.3   2931  MOL2931    -0.4105
  21792  H         80.0270  117.8790  198.4940 H     2931  MOL2931     0.2052
  21793  H         80.6210  118.3920  199.8860 H     2931  MOL2931     0.2052
  21794  O         76.1150  151.5950    1.0780 O.3   2932  MOL2932    -0.4105
  21795  H         75.5350  151.6950    1.8620 H     2932  MOL2932     0.2052
  21796  H         75.5400  151.4300    0.2870 H     2932  MOL2932     0.2052
  21797  O          6.8930  194.7480   29.9090 O.3   2933  MOL2933    -0.4105
  21798  H          7.8000  194.3770   29.9180 H     2933  MOL2933     0.2052
  21799  H          6.2490  193.9940   29.8770 H     2933  MOL2933     0.2052
  21800  O        103.2090  186.3790  169.3360 O.3   2934  MOL2934    -0.4105
  21801  H        102.2420  186.2400  169.2540 H     2934  MOL2934     0.2052
  21802  H        103.6360  185.5000  169.5070 H     2934  MOL2934     0.2052
  21803  O        119.6170  199.2350  229.7040 O.3   2935  MOL2935    -0.4105
  21804  H        119.8570  198.8230  230.5600 H     2935  MOL2935     0.2052
  21805  H        120.2490  198.9050  229.0130 H     2935  MOL2935     0.2052
  21806  O         65.5050   97.6780  296.5360 O.3   2936  MOL2936    -0.4105
  21807  H         64.7370   97.4320  295.9790 H     2936  MOL2936     0.2052
  21808  H         65.2240   98.4070  297.1470 H     2936  MOL2936     0.2052
  21809  O          0.8330   13.1000   35.9050 O.3   2937  MOL2937    -0.4105
  21810  H          1.0980   13.9140   36.3820 H     2937  MOL2937     0.2052
  21811  H          0.1800   13.3510   35.2020 H     2937  MOL2937     0.2052
  21812  O         78.1050   47.0010   54.2120 O.3   2938  MOL2938    -0.4105
  21813  H         78.1040   47.9430   53.9410 H     2938  MOL2938     0.2052
  21814  H         79.0450   46.7250   54.3730 H     2938  MOL2938     0.2052
  21815  O         27.5830   56.3200  228.8290 O.3   2939  MOL2939    -0.4105
  21816  H         28.1100   57.1450  228.7800 H     2939  MOL2939     0.2052
  21817  H         26.6400   56.5640  229.0170 H     2939  MOL2939     0.2052
  21818  O        160.9560   96.7240  127.1150 O.3   2940  MOL2940    -0.4105
  21819  H        160.6220   95.8260  126.9110 H     2940  MOL2940     0.2052
  21820  H        161.9470   96.7030  127.0770 H     2940  MOL2940     0.2052
  21821  O         90.6850  194.0010  264.6730 O.3   2941  MOL2941    -0.4105
  21822  H         90.6650  193.2140  264.0900 H     2941  MOL2941     0.2052
  21823  H         89.9250  193.9380  265.3070 H     2941  MOL2941     0.2052
  21824  O         64.7990  160.7890  200.5970 O.3   2942  MOL2942    -0.4105
  21825  H         63.8660  161.0640  200.4790 H     2942  MOL2942     0.2052
  21826  H         65.2520  161.4630  201.1670 H     2942  MOL2942     0.2052
  21827  O         84.1300   42.2470  211.5100 O.3   2943  MOL2943    -0.4105
  21828  H         83.8170   43.0650  211.9470 H     2943  MOL2943     0.2052
  21829  H         83.7700   41.4690  212.0100 H     2943  MOL2943     0.2052
  21830  O        146.3430   22.1670  152.2870 O.3   2944  MOL2944    -0.4105
  21831  H        146.9610   22.5500  151.6300 H     2944  MOL2944     0.2052
  21832  H        146.7850   21.3870  152.7130 H     2944  MOL2944     0.2052
  21833  O         43.6270   78.4250  145.4290 O.3   2945  MOL2945    -0.4105
  21834  H         44.5790   78.5560  145.6210 H     2945  MOL2945     0.2052
  21835  H         43.1960   78.0490  146.2400 H     2945  MOL2945     0.2052
  21836  O        126.7500   58.1940  186.1500 O.3   2946  MOL2946    -0.4105
  21837  H        126.8380   58.8710  185.4460 H     2946  MOL2946     0.2052
  21838  H        127.3280   57.4230  185.9130 H     2946  MOL2946     0.2052
  21839  O        196.1320  175.9090  230.2720 O.3   2947  MOL2947    -0.4105
  21840  H        195.6260  176.7420  230.3740 H     2947  MOL2947     0.2052
  21841  H        195.8510  175.2850  230.9900 H     2947  MOL2947     0.2052
  21842  O        137.4140  106.0650  276.1490 O.3   2948  MOL2948    -0.4105
  21843  H        137.1090  106.9200  275.7800 H     2948  MOL2948     0.2052
  21844  H        137.7230  106.2210  277.0790 H     2948  MOL2948     0.2052
  21845  O         73.2850  188.1190   94.8210 O.3   2949  MOL2949    -0.4105
  21846  H         73.2950  187.5860   93.9990 H     2949  MOL2949     0.2052
  21847  H         73.2850  187.4970   95.5940 H     2949  MOL2949     0.2052
  21848  O        107.6390   41.9600    4.9850 O.3   2950  MOL2950    -0.4105
  21849  H        106.9440   42.6520    4.9840 H     2950  MOL2950     0.2052
  21850  H        107.1940   41.0730    4.9840 H     2950  MOL2950     0.2052
  21851  O        104.5760  158.8240  113.3780 O.3   2951  MOL2951    -0.4105
  21852  H        103.7620  159.3340  113.1850 H     2951  MOL2951     0.2052
  21853  H        105.1280  158.7970  112.5530 H     2951  MOL2951     0.2052
  21854  O         76.7190   50.1700  268.5900 O.3   2952  MOL2952    -0.4105
  21855  H         75.9860   49.5380  268.4370 H     2952  MOL2952     0.2052
  21856  H         76.6750   50.8710  267.8880 H     2952  MOL2952     0.2052
  21857  O        122.7370   68.7220  265.2310 O.3   2953  MOL2953    -0.4105
  21858  H        122.0370   68.4970  264.5830 H     2953  MOL2953     0.2052
  21859  H        122.3330   69.2800  265.9450 H     2953  MOL2953     0.2052
  21860  O         65.2760  197.4290  145.6450 O.3   2954  MOL2954    -0.4105
  21861  H         65.7530  197.5240  146.4960 H     2954  MOL2954     0.2052
  21862  H         65.6860  196.6780  145.1420 H     2954  MOL2954     0.2052
  21863  O        128.0800   41.4470   94.6180 O.3   2955  MOL2955    -0.4105
  21864  H        128.9960   41.6250   94.3170 H     2955  MOL2955     0.2052
  21865  H        128.1250   40.9920   95.4980 H     2955  MOL2955     0.2052
  21866  O          4.3150   52.3380   59.1920 O.3   2956  MOL2956    -0.4105
  21867  H          3.7960   52.9160   59.7900 H     2956  MOL2956     0.2052
  21868  H          3.6900   51.7030   58.7550 H     2956  MOL2956     0.2052
  21869  O        154.3730  119.9320  288.7930 O.3   2957  MOL2957    -0.4105
  21870  H        153.8220  120.7080  288.5620 H     2957  MOL2957     0.2052
  21871  H        155.2420  120.2610  289.1420 H     2957  MOL2957     0.2052
  21872  O         80.1080  107.9540  271.0680 O.3   2958  MOL2958    -0.4105
  21873  H         80.6590  108.1070  271.8640 H     2958  MOL2958     0.2052
  21874  H         79.7800  107.0180  271.0920 H     2958  MOL2958     0.2052
  21875  O         81.0550   10.3630   16.8890 O.3   2959  MOL2959    -0.4105
  21876  H         81.0180    9.5170   17.3830 H     2959  MOL2959     0.2052
  21877  H         81.6010   11.0050   17.4130 H     2959  MOL2959     0.2052
  21878  O         92.2430  179.2040  188.0200 O.3   2960  MOL2960    -0.4105
  21879  H         91.7820  180.0470  187.8300 H     2960  MOL2960     0.2052
  21880  H         92.2930  179.0920  189.0040 H     2960  MOL2960     0.2052
  21881  O         15.2000  162.5750  226.1460 O.3   2961  MOL2961    -0.4105
  21882  H         14.3690  163.0950  226.1200 H     2961  MOL2961     0.2052
  21883  H         15.3970  162.3530  227.0930 H     2961  MOL2961     0.2052
  21884  O        114.4280  187.0230  119.9250 O.3   2962  MOL2962    -0.4105
  21885  H        113.6810  186.3890  119.9190 H     2962  MOL2962     0.2052
  21886  H        115.2400  186.5430  120.2340 H     2962  MOL2962     0.2052
  21887  O         25.0140   79.3930   22.6090 O.3   2963  MOL2963    -0.4105
  21888  H         25.6150   79.8420   23.2400 H     2963  MOL2963     0.2052
  21889  H         25.1620   79.7840   21.7090 H     2963  MOL2963     0.2052
  21890  O         16.8630  140.7500  156.2820 O.3   2964  MOL2964    -0.4105
  21891  H         16.5780  140.2870  157.0970 H     2964  MOL2964     0.2052
  21892  H         16.0650  140.8910  155.7090 H     2964  MOL2964     0.2052
  21893  O        106.3710   15.6990   90.5630 O.3   2965  MOL2965    -0.4105
  21894  H        107.1630   15.5950   89.9940 H     2965  MOL2965     0.2052
  21895  H        105.5660   15.6370   89.9870 H     2965  MOL2965     0.2052
  21896  O         91.5130  184.7450   32.5300 O.3   2966  MOL2966    -0.4105
  21897  H         92.4070  184.6880   32.1330 H     2966  MOL2966     0.2052
  21898  H         91.4660  185.5740   33.0730 H     2966  MOL2966     0.2052
  21899  O        128.3100   12.0550  123.0290 O.3   2967  MOL2967    -0.4105
  21900  H        127.6670   12.7770  122.8670 H     2967  MOL2967     0.2052
  21901  H        129.0530   12.4190  123.5760 H     2967  MOL2967     0.2052
  21902  O         93.5140   84.0020  180.3650 O.3   2968  MOL2968    -0.4105
  21903  H         94.0360   84.3000  181.1390 H     2968  MOL2968     0.2052
  21904  H         93.9240   84.3870  179.5470 H     2968  MOL2968     0.2052
  21905  O         30.1050  143.2870   33.9320 O.3   2969  MOL2969    -0.4105
  21906  H         29.1620  143.5360   34.0270 H     2969  MOL2969     0.2052
  21907  H         30.3110  143.2140   32.9640 H     2969  MOL2969     0.2052
  21908  O        145.1110   35.9850   36.2620 O.3   2970  MOL2970    -0.4105
  21909  H        145.6370   35.1650   36.1580 H     2970  MOL2970     0.2052
  21910  H        144.6540   36.1710   35.4010 H     2970  MOL2970     0.2052
  21911  O        173.7790  140.7220   92.6750 O.3   2971  MOL2971    -0.4105
  21912  H        173.7370  139.7450   92.7460 H     2971  MOL2971     0.2052
  21913  H        172.8520  141.0700   92.6270 H     2971  MOL2971     0.2052
  21914  O         90.3150   43.3520  114.2570 O.3   2972  MOL2972    -0.4105
  21915  H         90.5740   43.4290  113.3150 H     2972  MOL2972     0.2052
  21916  H         89.8850   42.4670  114.3880 H     2972  MOL2972     0.2052
  21917  O        125.0240  100.1860  266.9430 O.3   2973  MOL2973    -0.4105
  21918  H        124.1970   99.8280  266.5570 H     2973  MOL2973     0.2052
  21919  H        125.4470   99.4730  267.4870 H     2973  MOL2973     0.2052
  21920  O        180.8800  151.4720   23.6410 O.3   2974  MOL2974    -0.4105
  21921  H        181.1910  152.3860   23.8100 H     2974  MOL2974     0.2052
  21922  H        180.1420  151.2730   24.2730 H     2974  MOL2974     0.2052
  21923  O         28.9010  157.4540  174.0140 O.3   2975  MOL2975    -0.4105
  21924  H         28.7040  158.3890  173.7970 H     2975  MOL2975     0.2052
  21925  H         29.6110  157.1360  173.3980 H     2975  MOL2975     0.2052
  21926  O         47.8570   47.2660   40.8630 O.3   2976  MOL2976    -0.4105
  21927  H         48.0370   46.3790   40.4860 H     2976  MOL2976     0.2052
  21928  H         46.8960   47.3100   41.1060 H     2976  MOL2976     0.2052
  21929  O        117.1040  158.6180  242.0540 O.3   2977  MOL2977    -0.4105
  21930  H        117.4370  159.4990  241.7800 H     2977  MOL2977     0.2052
  21931  H        116.1240  158.6870  242.1950 H     2977  MOL2977     0.2052
  21932  O          3.2720   28.6990  124.1820 O.3   2978  MOL2978    -0.4105
  21933  H          3.7420   29.5600  124.1770 H     2978  MOL2978     0.2052
  21934  H          3.9500   27.9760  124.2230 H     2978  MOL2978     0.2052
  21935  O        197.3960  122.4340  153.4610 O.3   2979  MOL2979    -0.4105
  21936  H        197.7610  122.8630  154.2630 H     2979  MOL2979     0.2052
  21937  H        196.9180  121.6100  153.7400 H     2979  MOL2979     0.2052
  21938  O         27.5560   66.5120   93.0750 O.3   2980  MOL2980    -0.4105
  21939  H         28.1250   67.3030   93.1770 H     2980  MOL2980     0.2052
  21940  H         28.0200   65.8700   92.4770 H     2980  MOL2980     0.2052
  21941  O         32.4670  156.1850  113.1620 O.3   2981  MOL2981    -0.4105
  21942  H         31.9690  156.9570  113.5030 H     2981  MOL2981     0.2052
  21943  H         32.8550  155.7000  113.9360 H     2981  MOL2981     0.2052
  21944  O         10.9670   24.6770   14.5040 O.3   2982  MOL2982    -0.4105
  21945  H         11.7550   25.1060   14.1100 H     2982  MOL2982     0.2052
  21946  H         10.1700   24.9490   13.9800 H     2982  MOL2982     0.2052
  21947  O        184.9040  103.2470  264.1790 O.3   2983  MOL2983    -0.4105
  21948  H        185.2240  102.3240  264.2560 H     2983  MOL2983     0.2052
  21949  H        184.5150  103.3670  263.2740 H     2983  MOL2983     0.2052
  21950  O        105.9510   12.5430   96.3820 O.3   2984  MOL2984    -0.4105
  21951  H        105.3480   12.7650   95.6410 H     2984  MOL2984     0.2052
  21952  H        106.1040   13.3650   96.9150 H     2984  MOL2984     0.2052
  21953  O        126.3350  145.1970  284.6750 O.3   2985  MOL2985    -0.4105
  21954  H        126.8010  145.0500  283.8260 H     2985  MOL2985     0.2052
  21955  H        126.4940  146.1350  284.9570 H     2985  MOL2985     0.2052
  21956  O         59.0800  190.4620  127.8780 O.3   2986  MOL2986    -0.4105
  21957  H         58.5920  190.1210  127.1000 H     2986  MOL2986     0.2052
  21958  H         59.1080  191.4520  127.8180 H     2986  MOL2986     0.2052
  21959  O        125.5740  134.8920   46.0560 O.3   2987  MOL2987    -0.4105
  21960  H        125.9980  134.4300   45.3030 H     2987  MOL2987     0.2052
  21961  H        125.9690  134.5420   46.8970 H     2987  MOL2987     0.2052
  21962  O        173.5080   65.6470  206.6090 O.3   2988  MOL2988    -0.4105
  21963  H        173.6190   65.1200  205.7910 H     2988  MOL2988     0.2052
  21964  H        172.5360   65.7730  206.7680 H     2988  MOL2988     0.2052
  21965  O        182.3210   15.7430   82.4790 O.3   2989  MOL2989    -0.4105
  21966  H        181.6270   16.1970   83.0030 H     2989  MOL2989     0.2052
  21967  H        182.8170   16.4290   81.9620 H     2989  MOL2989     0.2052
  21968  O        137.4340  168.9530  200.8740 O.3   2990  MOL2990    -0.4105
  21969  H        137.5840  168.0290  200.5850 H     2990  MOL2990     0.2052
  21970  H        136.6240  169.2950  200.4140 H     2990  MOL2990     0.2052
  21971  O         12.3110  121.5620  277.3030 O.3   2991  MOL2991    -0.4105
  21972  H         11.7450  120.7820  277.1250 H     2991  MOL2991     0.2052
  21973  H         13.1300  121.2520  277.7680 H     2991  MOL2991     0.2052
  21974  O        161.4180  132.1410   83.1900 O.3   2992  MOL2992    -0.4105
  21975  H        161.4850  133.0570   83.5310 H     2992  MOL2992     0.2052
  21976  H        161.5710  132.1630   82.2100 H     2992  MOL2992     0.2052
  21977  O        148.5200  195.0790  216.4120 O.3   2993  MOL2993    -0.4105
  21978  H        147.6860  195.5880  216.4910 H     2993  MOL2993     0.2052
  21979  H        149.2790  195.7090  216.5200 H     2993  MOL2993     0.2052
  21980  O        113.8160  118.2500   36.6840 O.3   2994  MOL2994    -0.4105
  21981  H        112.8550  118.2270   36.4960 H     2994  MOL2994     0.2052
  21982  H        113.9990  117.6380   37.4430 H     2994  MOL2994     0.2052
  21983  O        171.3400  121.8120   29.9230 O.3   2995  MOL2995    -0.4105
  21984  H        171.0210  121.4690   29.0620 H     2995  MOL2995     0.2052
  21985  H        170.6800  121.5600   30.6200 H     2995  MOL2995     0.2052
  21986  O        156.5980  128.1440  273.1580 O.3   2996  MOL2996    -0.4105
  21987  H        156.0520  128.4650  272.4110 H     2996  MOL2996     0.2052
  21988  H        157.4550  128.6440  273.1540 H     2996  MOL2996     0.2052
  21989  O          1.3790   42.8650  189.9140 O.3   2997  MOL2997    -0.4105
  21990  H          2.0950   43.2400  189.3590 H     2997  MOL2997     0.2052
  21991  H          0.5680   42.7680  189.3510 H     2997  MOL2997     0.2052
  21992  O        155.2980   18.4540  102.8360 O.3   2998  MOL2998    -0.4105
  21993  H        156.2700   18.3280  102.8380 H     2998  MOL2998     0.2052
  21994  H        154.8690   17.5600  102.8630 H     2998  MOL2998     0.2052
  21995  O        114.3430  126.1460  242.1700 O.3   2999  MOL2999    -0.4105
  21996  H        115.2090  125.7320  241.9750 H     2999  MOL2999     0.2052
  21997  H        114.4990  127.0980  242.4030 H     2999  MOL2999     0.2052
  21998  O        163.1260   34.9850  199.6400 O.3   3000  MOL3000    -0.4105
  21999  H        162.8930   35.9000  199.3780 H     3000  MOL3000     0.2052
  22000  H        164.0830   34.8350  199.4260 H     3000  MOL3000     0.2052
  22001  O         77.4830  112.4380   16.6670 O.3   3001  MOL3001    -0.4105
  22002  H         77.2350  112.8350   15.8060 H     3001  MOL3001     0.2052
  22003  H         77.8710  111.5410   16.4950 H     3001  MOL3001     0.2052
  22004  O         19.0900    7.5630   18.1480 O.3   3002  MOL3002    -0.4105
  22005  H         18.6770    6.6990   18.3540 H     3002  MOL3002     0.2052
  22006  H         18.5030    8.0430   17.5080 H     3002  MOL3002     0.2052
  22007  O        109.8350   10.3430  182.7460 O.3   3003  MOL3003    -0.4105
  22008  H        109.1410   10.9620  182.4380 H     3003  MOL3003     0.2052
  22009  H        109.5230    9.4170  182.5750 H     3003  MOL3003     0.2052
  22010  O        177.4720  132.0370  217.1730 O.3   3004  MOL3004    -0.4105
  22011  H        176.7480  131.3910  217.0370 H     3004  MOL3004     0.2052
  22012  H        177.1090  132.9470  217.0160 H     3004  MOL3004     0.2052
  22013  O         49.7340   44.2360  236.8020 O.3   3005  MOL3005    -0.4105
  22014  H         50.6050   43.8080  236.9360 H     3005  MOL3005     0.2052
  22015  H         49.3540   44.4510  237.6940 H     3005  MOL3005     0.2052
  22016  O        167.4750  115.7360  108.9350 O.3   3006  MOL3006    -0.4105
  22017  H        168.3700  115.6220  108.5510 H     3006  MOL3006     0.2052
  22018  H        167.4660  116.5820  109.4540 H     3006  MOL3006     0.2052
  22019  O        141.8320   17.4280   56.4650 O.3   3007  MOL3007    -0.4105
  22020  H        141.2210   18.1910   56.5300 H     3007  MOL3007     0.2052
  22021  H        142.7610   17.7770   56.4290 H     3007  MOL3007     0.2052
  22022  O        182.0720   69.2270  292.1230 O.3   3008  MOL3008    -0.4105
  22023  H        183.0220   68.9980  292.0510 H     3008  MOL3008     0.2052
  22024  H        181.5410   68.4000  291.9840 H     3008  MOL3008     0.2052
  22025  O          0.4300   62.3200   64.2970 O.3   3009  MOL3009    -0.4105
  22026  H          1.2770   62.7000   64.6100 H     3009  MOL3009     0.2052
  22027  H          0.2940   61.4480   64.7520 H     3009  MOL3009     0.2052
  22028  O         23.9840   33.1800    7.5470 O.3   3010  MOL3010    -0.4105
  22029  H         23.0570   33.0730    7.2470 H     3010  MOL3010     0.2052
  22030  H         24.2990   32.3080    7.9000 H     3010  MOL3010     0.2052
  22031  O         90.8460   68.4460  201.8830 O.3   3011  MOL3011    -0.4105
  22032  H         89.8670   68.4070  201.9160 H     3011  MOL3011     0.2052
  22033  H         91.1250   69.3820  202.0550 H     3011  MOL3011     0.2052
  22034  O        107.3330   13.2320   22.1020 O.3   3012  MOL3012    -0.4105
  22035  H        106.8350   12.5610   22.6140 H     3012  MOL3012     0.2052
  22036  H        107.8420   13.7950   22.7420 H     3012  MOL3012     0.2052
  22037  O        112.7280   82.9260   15.3000 O.3   3013  MOL3013    -0.4105
  22038  H        111.7920   82.7570   15.0670 H     3013  MOL3013     0.2052
  22039  H        113.3000   82.3680   14.7110 H     3013  MOL3013     0.2052
  22040  O         58.2500   29.5700   68.1140 O.3   3014  MOL3014    -0.4105
  22041  H         59.0040   29.1820   68.6050 H     3014  MOL3014     0.2052
  22042  H         58.3970   29.4140   67.1450 H     3014  MOL3014     0.2052
  22043  O        187.2860   34.8300  233.3400 O.3   3015  MOL3015    -0.4105
  22044  H        187.4720   35.6780  232.8840 H     3015  MOL3015     0.2052
  22045  H        186.3020   34.7000  233.3630 H     3015  MOL3015     0.2052
  22046  O        140.8490   94.4080   11.1260 O.3   3016  MOL3016    -0.4105
  22047  H        141.4760   94.0400   10.4690 H     3016  MOL3016     0.2052
  22048  H        141.1960   95.2870   11.4280 H     3016  MOL3016     0.2052
  22049  O          7.7690   24.1460  191.5680 O.3   3017  MOL3017    -0.4105
  22050  H          8.2160   24.8530  192.0800 H     3017  MOL3017     0.2052
  22051  H          6.8400   24.4390  191.3790 H     3017  MOL3017     0.2052
  22052  O        154.8490   48.1370  262.5910 O.3   3018  MOL3018    -0.4105
  22053  H        155.4580   47.4460  262.2560 H     3018  MOL3018     0.2052
  22054  H        154.4990   48.6450  261.8130 H     3018  MOL3018     0.2052
  22055  O        168.0970   57.1750   59.9330 O.3   3019  MOL3019    -0.4105
  22056  H        167.4010   57.0740   60.6160 H     3019  MOL3019     0.2052
  22057  H        167.8960   57.9890   59.4030 H     3019  MOL3019     0.2052
  22058  O         96.6170   70.5800   43.2510 O.3   3020  MOL3020    -0.4105
  22059  H         96.6750   70.4230   42.2850 H     3020  MOL3020     0.2052
  22060  H         96.9740   69.7810   43.7170 H     3020  MOL3020     0.2052
  22061  O        187.6200   18.5230  123.6730 O.3   3021  MOL3021    -0.4105
  22062  H        187.6040   17.7780  124.3100 H     3021  MOL3021     0.2052
  22063  H        187.2430   18.2040  122.8120 H     3021  MOL3021     0.2052
  22064  O         32.0170  181.9480   82.9850 O.3   3022  MOL3022    -0.4105
  22065  H         32.8840  182.2080   82.6080 H     3022  MOL3022     0.2052
  22066  H         32.0600  180.9860   83.2250 H     3022  MOL3022     0.2052
  22067  O        102.4380  180.7780  260.1040 O.3   3023  MOL3023    -0.4105
  22068  H        102.3940  181.7460  260.2470 H     3023  MOL3023     0.2052
  22069  H        101.5610  180.4760  259.7510 H     3023  MOL3023     0.2052
  22070  O        116.9510   84.3360   36.0320 O.3   3024  MOL3024    -0.4105
  22071  H        116.5610   83.4480   36.1790 H     3024  MOL3024     0.2052
  22072  H        117.5020   84.3000   35.2080 H     3024  MOL3024     0.2052
  22073  O        150.0750   74.3900  229.8080 O.3   3025  MOL3025    -0.4105
  22074  H        150.1070   75.3660  229.7300 H     3025  MOL3025     0.2052
  22075  H        151.0070   74.0490  229.8190 H     3025  MOL3025     0.2052
  22076  O        121.9070   49.7070  277.2390 O.3   3026  MOL3026    -0.4105
  22077  H        121.9270   49.8070  276.2640 H     3026  MOL3026     0.2052
  22078  H        120.9630   49.5780  277.5180 H     3026  MOL3026     0.2052
  22079  O        121.9590  178.0990  163.8520 O.3   3027  MOL3027    -0.4105
  22080  H        122.6900  177.4490  163.9170 H     3027  MOL3027     0.2052
  22081  H        122.2180  178.9100  164.3610 H     3027  MOL3027     0.2052
  22082  O        124.3620  185.0590  135.6990 O.3   3028  MOL3028    -0.4105
  22083  H        123.9980  185.5020  134.9030 H     3028  MOL3028     0.2052
  22084  H        125.3370  184.9320  135.5650 H     3028  MOL3028     0.2052
  22085  O         24.8660  118.2160  160.2360 O.3   3029  MOL3029    -0.4105
  22086  H         25.6620  117.6730  160.0570 H     3029  MOL3029     0.2052
  22087  H         24.2350  117.6730  160.7750 H     3029  MOL3029     0.2052
  22088  O        172.4300  183.6260   36.1840 O.3   3030  MOL3030    -0.4105
  22089  H        173.3690  183.3500   36.1380 H     3030  MOL3030     0.2052
  22090  H        172.2840  184.0860   37.0510 H     3030  MOL3030     0.2052
  22091  O        129.0590  104.3640  166.4440 O.3   3031  MOL3031    -0.4105
  22092  H        129.6520  105.1280  166.2790 H     3031  MOL3031     0.2052
  22093  H        129.3210  103.6300  165.8300 H     3031  MOL3031     0.2052
  22094  O         10.5970   18.2360   89.0960 O.3   3032  MOL3032    -0.4105
  22095  H         11.5340   18.3180   89.3690 H     3032  MOL3032     0.2052
  22096  H         10.5740   17.9850   88.1360 H     3032  MOL3032     0.2052
  22097  O        197.5410  196.9340   59.0290 O.3   3033  MOL3033    -0.4105
  22098  H        196.9770  196.1340   59.0890 H     3033  MOL3033     0.2052
  22099  H        198.2730  196.7500   58.3850 H     3033  MOL3033     0.2052
  22100  O         41.7160  146.3000  168.1800 O.3   3034  MOL3034    -0.4105
  22101  H         41.5000  146.6170  169.0820 H     3034  MOL3034     0.2052
  22102  H         41.2220  146.8600  167.5270 H     3034  MOL3034     0.2052
  22103  O        136.6210   38.7530   69.5280 O.3   3035  MOL3035    -0.4105
  22104  H        136.0960   37.9290   69.5980 H     3035  MOL3035     0.2052
  22105  H        137.5700   38.5050   69.3750 H     3035  MOL3035     0.2052
  22106  O        165.0110  158.7850   44.1890 O.3   3036  MOL3036    -0.4105
  22107  H        165.3480  158.2120   43.4690 H     3036  MOL3036     0.2052
  22108  H        165.5480  159.6190   44.1990 H     3036  MOL3036     0.2052
  22109  O        105.7460  130.3410  198.2120 O.3   3037  MOL3037    -0.4105
  22110  H        105.6340  130.6190  199.1450 H     3037  MOL3037     0.2052
  22111  H        105.2050  129.5220  198.0650 H     3037  MOL3037     0.2052
  22112  O         96.7170  179.1380   35.4940 O.3   3038  MOL3038    -0.4105
  22113  H         96.9540  178.7290   36.3520 H     3038  MOL3038     0.2052
  22114  H         96.6200  180.1160   35.6320 H     3038  MOL3038     0.2052
  22115  O        120.5410  172.4950  121.1450 O.3   3039  MOL3039    -0.4105
  22116  H        119.6590  172.1840  120.8520 H     3039  MOL3039     0.2052
  22117  H        121.0710  172.7290  120.3390 H     3039  MOL3039     0.2052
  22118  O        177.1320   74.4420  285.0240 O.3   3040  MOL3040    -0.4105
  22119  H        177.6540   74.1070  285.7830 H     3040  MOL3040     0.2052
  22120  H        176.4670   75.0930  285.3680 H     3040  MOL3040     0.2052
  22121  O        154.6230  146.2920   62.9300 O.3   3041  MOL3041    -0.4105
  22122  H        154.5600  145.3380   62.7160 H     3041  MOL3041     0.2052
  22123  H        155.1530  146.7350   62.2180 H     3041  MOL3041     0.2052
  22124  O        196.5040  105.7770   11.5510 O.3   3042  MOL3042    -0.4105
  22125  H        196.7890  104.9120   11.9130 H     3042  MOL3042     0.2052
  22126  H        197.2740  106.4010   11.5970 H     3042  MOL3042     0.2052
  22127  O        189.7590  103.3010  203.2100 O.3   3043  MOL3043    -0.4105
  22128  H        189.9870  103.2110  202.2610 H     3043  MOL3043     0.2052
  22129  H        189.3200  102.4620  203.5050 H     3043  MOL3043     0.2052
  22130  O        174.7380  167.3730  110.8860 O.3   3044  MOL3044    -0.4105
  22131  H        173.8430  167.7190  110.6860 H     3044  MOL3044     0.2052
  22132  H        175.0670  167.8220  111.7080 H     3044  MOL3044     0.2052
  22133  O         11.0820  190.5410   64.7570 O.3   3045  MOL3045    -0.4105
  22134  H         10.4880  190.4610   63.9810 H     3045  MOL3045     0.2052
  22135  H         11.1210  189.6590   65.2100 H     3045  MOL3045     0.2052
  22136  O        148.7820   79.0670  277.7910 O.3   3046  MOL3046    -0.4105
  22137  H        148.9190   78.1060  277.9230 H     3046  MOL3046     0.2052
  22138  H        147.8390   79.2790  278.0130 H     3046  MOL3046     0.2052
  22139  O          0.6510   44.4370  231.7600 O.3   3047  MOL3047    -0.4105
  22140  H          1.3340   43.7470  231.6290 H     3047  MOL3047     0.2052
  22141  H          0.0080   44.3850  231.0060 H     3047  MOL3047     0.2052
  22142  O        154.1660   97.6950  125.2440 O.3   3048  MOL3048    -0.4105
  22143  H        153.7180   98.5140  124.9440 H     3048  MOL3048     0.2052
  22144  H        155.0710   97.6710  124.8380 H     3048  MOL3048     0.2052
  22145  O         16.6450  163.7370   13.9080 O.3   3049  MOL3049    -0.4105
  22146  H         17.3630  164.2270   14.3620 H     3049  MOL3049     0.2052
  22147  H         15.8140  164.2750   13.9690 H     3049  MOL3049     0.2052
  22148  O        159.3050  106.4200  283.6540 O.3   3050  MOL3050    -0.4105
  22149  H        159.8930  106.0450  284.3430 H     3050  MOL3050     0.2052
  22150  H        159.8310  107.0690  283.1180 H     3050  MOL3050     0.2052
  22151  O        197.4890  104.3730  233.2240 O.3   3051  MOL3051    -0.4105
  22152  H        196.6160  104.3830  232.7790 H     3051  MOL3051     0.2052
  22153  H        197.3910  103.8950  234.0880 H     3051  MOL3051     0.2052
  22154  O        154.4610   99.0590  141.8390 O.3   3052  MOL3052    -0.4105
  22155  H        154.1970   98.1220  141.9490 H     3052  MOL3052     0.2052
  22156  H        154.3360   99.5210  142.7080 H     3052  MOL3052     0.2052
  22157  O         55.8210   94.8540  240.4770 O.3   3053  MOL3053    -0.4105
  22158  H         55.6670   93.8910  240.5770 H     3053  MOL3053     0.2052
  22159  H         56.8000   95.0150  240.4950 H     3053  MOL3053     0.2052
  22160  O        104.2590   32.4280  179.0180 O.3   3054  MOL3054    -0.4105
  22161  H        104.2780   33.1990  178.4120 H     3054  MOL3054     0.2052
  22162  H        103.4220   32.4720  179.5500 H     3054  MOL3054     0.2052
  22163  O        153.4390   48.7140   54.8060 O.3   3055  MOL3055    -0.4105
  22164  H        153.6660   49.6600   54.6940 H     3055  MOL3055     0.2052
  22165  H        152.5390   48.6570   55.2200 H     3055  MOL3055     0.2052
  22166  O         82.7230   24.0220  206.2780 O.3   3056  MOL3056    -0.4105
  22167  H         83.1830   24.3100  207.0940 H     3056  MOL3056     0.2052
  22168  H         82.9910   23.0860  206.0840 H     3056  MOL3056     0.2052
  22169  O         27.9060  164.9020   26.5030 O.3   3057  MOL3057    -0.4105
  22170  H         27.8310  165.8650   26.3390 H     3057  MOL3057     0.2052
  22171  H         28.4100  164.4970   25.7500 H     3057  MOL3057     0.2052
  22172  O        132.5070   49.4620  164.5530 O.3   3058  MOL3058    -0.4105
  22173  H        133.4190   49.3470  164.8930 H     3058  MOL3058     0.2052
  22174  H        131.9060   49.6210  165.3270 H     3058  MOL3058     0.2052
  22175  O        198.2990   87.8530  251.4890 O.3   3059  MOL3059    -0.4105
  22176  H        197.3450   87.8840  251.2640 H     3059  MOL3059     0.2052
  22177  H        198.4950   86.9660  251.8890 H     3059  MOL3059     0.2052
  22178  O         42.7100  157.4550   97.1720 O.3   3060  MOL3060    -0.4105
  22179  H         43.1390  156.9260   96.4670 H     3060  MOL3060     0.2052
  22180  H         41.8610  157.8210   96.8130 H     3060  MOL3060     0.2052
  22181  O        115.1480  175.9580   59.0290 O.3   3061  MOL3061    -0.4105
  22182  H        114.3680  176.5130   58.8160 H     3061  MOL3061     0.2052
  22183  H        115.8730  176.1830   58.3900 H     3061  MOL3061     0.2052
  22184  O        196.6850   24.0990  181.1790 O.3   3062  MOL3062    -0.4105
  22185  H        196.0270   24.8250  181.1750 H     3062  MOL3062     0.2052
  22186  H        197.5920   24.5020  181.1890 H     3062  MOL3062     0.2052
  22187  O         94.2350  148.3460  212.1520 O.3   3063  MOL3063    -0.4105
  22188  H         94.2810  148.6210  213.0920 H     3063  MOL3063     0.2052
  22189  H         94.4830  147.3870  212.0970 H     3063  MOL3063     0.2052
  22190  O        133.2950  164.5780   29.7100 O.3   3064  MOL3064    -0.4105
  22191  H        134.0500  164.3740   29.1190 H     3064  MOL3064     0.2052
  22192  H        132.8170  165.3660   29.3420 H     3064  MOL3064     0.2052
  22193  O         95.8530   65.5770  208.2990 O.3   3065  MOL3065    -0.4105
  22194  H         95.2120   64.9940  208.7580 H     3065  MOL3065     0.2052
  22195  H         95.8110   65.3800  207.3280 H     3065  MOL3065     0.2052
  22196  O         40.3280   82.2000  281.7110 O.3   3066  MOL3066    -0.4105
  22197  H         40.5300   81.8990  282.6220 H     3066  MOL3066     0.2052
  22198  H         40.0220   81.4160  281.1860 H     3066  MOL3066     0.2052
  22199  O        116.8590   55.2240  231.8770 O.3   3067  MOL3067    -0.4105
  22200  H        116.1580   54.7710  232.3900 H     3067  MOL3067     0.2052
  22201  H        117.1690   54.6070  231.1640 H     3067  MOL3067     0.2052
  22202  O         57.3780   73.9990  205.1320 O.3   3068  MOL3068    -0.4105
  22203  H         58.1830   73.5190  205.4210 H     3068  MOL3068     0.2052
  22204  H         57.6500   74.9010  204.8210 H     3068  MOL3068     0.2052
  22205  O        173.4500   19.5500   39.5750 O.3   3069  MOL3069    -0.4105
  22206  H        174.2260   19.1940   40.0550 H     3069  MOL3069     0.2052
  22207  H        172.6380   19.0910   39.9150 H     3069  MOL3069     0.2052
  22208  O        142.0990   89.4720  199.4050 O.3   3070  MOL3070    -0.4105
  22209  H        141.3110   88.8940  199.4800 H     3070  MOL3070     0.2052
  22210  H        142.8230   89.0830  199.9600 H     3070  MOL3070     0.2052
  22211  O         83.8450  115.4060   78.5600 O.3   3071  MOL3071    -0.4105
  22212  H         83.3900  114.8210   77.9190 H     3071  MOL3071     0.2052
  22213  H         84.7220  115.6670   78.1740 H     3071  MOL3071     0.2052
  22214  O         45.7200  110.7150  174.2680 O.3   3072  MOL3072    -0.4105
  22215  H         46.2760  109.9310  174.0750 H     3072  MOL3072     0.2052
  22216  H         45.7840  111.3380  173.4990 H     3072  MOL3072     0.2052
  22217  O        102.9220  161.0050  153.4530 O.3   3073  MOL3073    -0.4105
  22218  H        102.1440  161.1080  154.0390 H     3073  MOL3073     0.2052
  22219  H        103.0360  160.0400  153.2550 H     3073  MOL3073     0.2052
  22220  O        107.4980  191.2660  277.0830 O.3   3074  MOL3074    -0.4105
  22221  H        108.4340  190.9750  277.0700 H     3074  MOL3074     0.2052
  22222  H        107.0000  190.6810  277.7110 H     3074  MOL3074     0.2052
  22223  O          6.4400  178.3370  149.2650 O.3   3075  MOL3075    -0.4105
  22224  H          5.5380  178.1850  149.6160 H     3075  MOL3075     0.2052
  22225  H          6.8600  177.4540  149.0960 H     3075  MOL3075     0.2052
  22226  O          7.9460  127.0950   26.0310 O.3   3076  MOL3076    -0.4105
  22227  H          7.3590  126.9960   26.8100 H     3076  MOL3076     0.2052
  22228  H          7.3780  127.1870   25.2230 H     3076  MOL3076     0.2052
  22229  O        188.3380  127.5730   30.8440 O.3   3077  MOL3077    -0.4105
  22230  H        188.9240  128.3560   30.7960 H     3077  MOL3077     0.2052
  22231  H        187.4030  127.8910   30.9440 H     3077  MOL3077     0.2052
  22232  O        187.8230   18.4900  145.3990 O.3   3078  MOL3078    -0.4105
  22233  H        187.3210   19.3010  145.1740 H     3078  MOL3078     0.2052
  22234  H        187.4290   18.0980  146.2200 H     3078  MOL3078     0.2052
  22235  O        127.4340  130.9560  205.1070 O.3   3079  MOL3079    -0.4105
  22236  H        128.3890  130.8990  205.3180 H     3079  MOL3079     0.2052
  22237  H        127.0480  130.0430  205.1670 H     3079  MOL3079     0.2052
  22238  O         25.2640    9.0960  145.9870 O.3   3080  MOL3080    -0.4105
  22239  H         25.2120    9.2190  145.0160 H     3080  MOL3080     0.2052
  22240  H         24.6420    9.7390  146.4150 H     3080  MOL3080     0.2052
  22241  O        163.5310   27.1250   21.9580 O.3   3081  MOL3081    -0.4105
  22242  H        163.2280   26.1940   21.9780 H     3081  MOL3081     0.2052
  22243  H        164.5030   27.1390   22.1570 H     3081  MOL3081     0.2052
  22244  O        181.1010   34.9390  187.8900 O.3   3082  MOL3082    -0.4105
  22245  H        181.9700   35.2250  187.5390 H     3082  MOL3082     0.2052
  22246  H        180.7110   35.6910  188.4050 H     3082  MOL3082     0.2052
  22247  O          3.3920   48.3780   21.2250 O.3   3083  MOL3083    -0.4105
  22248  H          4.0710   48.7590   20.6290 H     3083  MOL3083     0.2052
  22249  H          3.1210   49.0780   21.8740 H     3083  MOL3083     0.2052
  22250  O        104.4980  150.6250  225.9500 O.3   3084  MOL3084    -0.4105
  22251  H        104.4290  149.6500  225.8700 H     3084  MOL3084     0.2052
  22252  H        104.5440  150.8540  226.9150 H     3084  MOL3084     0.2052
  22253  O        160.4130  120.3030  160.1310 O.3   3085  MOL3085    -0.4105
  22254  H        160.0160  119.4200  159.9780 H     3085  MOL3085     0.2052
  22255  H        161.3990  120.1970  160.1680 H     3085  MOL3085     0.2052
  22256  O        119.9120  144.2900  237.8540 O.3   3086  MOL3086    -0.4105
  22257  H        119.2740  143.6230  237.5260 H     3086  MOL3086     0.2052
  22258  H        120.2000  144.0230  238.7650 H     3086  MOL3086     0.2052
  22259  O          7.6790  189.6580   25.5100 O.3   3087  MOL3087    -0.4105
  22260  H          6.8270  189.6930   25.0260 H     3087  MOL3087     0.2052
  22261  H          7.6180  190.2680   26.2900 H     3087  MOL3087     0.2052
  22262  O        170.4650   49.9140   32.1860 O.3   3088  MOL3088    -0.4105
  22263  H        170.9540   49.2770   31.6250 H     3088  MOL3088     0.2052
  22264  H        170.6300   50.8280   31.8350 H     3088  MOL3088     0.2052
  22265  O        154.9670   72.3730   36.7680 O.3   3089  MOL3089    -0.4105
  22266  H        154.8590   71.4230   36.5530 H     3089  MOL3089     0.2052
  22267  H        154.0670   72.7890   36.8000 H     3089  MOL3089     0.2052
  22268  O         36.0720   51.6960  193.4060 O.3   3090  MOL3090    -0.4105
  22269  H         35.4670   51.0670  193.8520 H     3090  MOL3090     0.2052
  22270  H         36.2780   52.4310  194.0390 H     3090  MOL3090     0.2052
  22271  O        131.1780  163.4400   22.9610 O.3   3091  MOL3091    -0.4105
  22272  H        131.8210  162.9800   23.5400 H     3091  MOL3091     0.2052
  22273  H        130.8160  164.2190   23.4560 H     3091  MOL3091     0.2052
  22274  O         36.3640   82.0390  212.7700 O.3   3092  MOL3092    -0.4105
  22275  H         36.8390   81.7560  211.9610 H     3092  MOL3092     0.2052
  22276  H         35.5150   81.5290  212.8260 H     3092  MOL3092     0.2052
  22277  O         94.4600  189.9630   31.2920 O.3   3093  MOL3093    -0.4105
  22278  H         95.4010  190.1070   31.0570 H     3093  MOL3093     0.2052
  22279  H         94.4100  189.1920   31.9150 H     3093  MOL3093     0.2052
  22280  O        165.5350  176.6130   94.4280 O.3   3094  MOL3094    -0.4105
  22281  H        165.9190  175.7460   94.6760 H     3094  MOL3094     0.2052
  22282  H        165.7690  176.7970   93.4810 H     3094  MOL3094     0.2052
  22283  O        165.1840  167.9270   70.7760 O.3   3095  MOL3095    -0.4105
  22284  H        164.4540  168.5760   70.6950 H     3095  MOL3095     0.2052
  22285  H        165.8110  168.0700   70.0210 H     3095  MOL3095     0.2052
  22286  O         93.2830  168.3690    7.5030 O.3   3096  MOL3096    -0.4105
  22287  H         93.5450  167.5600    7.9910 H     3096  MOL3096     0.2052
  22288  H         93.0610  168.1110    6.5710 H     3096  MOL3096     0.2052
  22289  O          5.6650  157.1370  209.7210 O.3   3097  MOL3097    -0.4105
  22290  H          6.0890  157.0070  208.8470 H     3097  MOL3097     0.2052
  22291  H          5.3920  158.0890  209.7950 H     3097  MOL3097     0.2052
  22292  O         76.7460   14.6410  181.9250 O.3   3098  MOL3098    -0.4105
  22293  H         77.5590   14.1380  182.1380 H     3098  MOL3098     0.2052
  22294  H         77.0090   15.5630  181.6680 H     3098  MOL3098     0.2052
  22295  O         49.3620   67.7060  174.0680 O.3   3099  MOL3099    -0.4105
  22296  H         48.7680   68.4840  174.0220 H     3099  MOL3099     0.2052
  22297  H         49.2810   67.3060  174.9730 H     3099  MOL3099     0.2052
  22298  O         21.1740  144.4460  206.4110 O.3   3100  MOL3100    -0.4105
  22299  H         20.2600  144.7650  206.2590 H     3100  MOL3100     0.2052
  22300  H         21.2330  143.5080  206.0950 H     3100  MOL3100     0.2052
  22301  O        142.2180   33.7550  203.5510 O.3   3101  MOL3101    -0.4105
  22302  H        141.8540   32.9460  203.1320 H     3101  MOL3101     0.2052
  22303  H        141.5010   34.4400  203.5760 H     3101  MOL3101     0.2052
  22304  O         39.8440    5.4240  239.2020 O.3   3102  MOL3102    -0.4105
  22305  H         39.1400    4.8560  239.5800 H     3102  MOL3102     0.2052
  22306  H         40.3150    4.9070  238.4980 H     3102  MOL3102     0.2052
  22307  O         75.5000  162.6270  237.7040 O.3   3103  MOL3103    -0.4105
  22308  H         74.6440  162.1650  237.8230 H     3103  MOL3103     0.2052
  22309  H         76.1980  161.9450  237.5220 H     3103  MOL3103     0.2052
  22310  O        198.7160   35.9770  199.2230 O.3   3104  MOL3104    -0.4105
  22311  H        199.1790   35.5680  198.4620 H     3104  MOL3104     0.2052
  22312  H        199.1690   35.6840  200.0560 H     3104  MOL3104     0.2052
  22313  O          8.5050    7.2130  165.4250 O.3   3105  MOL3105    -0.4105
  22314  H          7.5730    7.0780  165.1540 H     3105  MOL3105     0.2052
  22315  H          8.6560    8.1860  165.5410 H     3105  MOL3105     0.2052
  22316  O        102.1000    3.4100  112.4880 O.3   3106  MOL3106    -0.4105
  22317  H        102.7450    3.9820  112.9530 H     3106  MOL3106     0.2052
  22318  H        102.6050    2.7340  111.9660 H     3106  MOL3106     0.2052
  22319  O        146.2650  144.0500  197.6490 O.3   3107  MOL3107    -0.4105
  22320  H        145.3160  144.0320  197.4020 H     3107  MOL3107     0.2052
  22321  H        146.7530  144.5840  196.9710 H     3107  MOL3107     0.2052
  22322  O        165.7480  151.4190  200.0680 O.3   3108  MOL3108    -0.4105
  22323  H        166.0730  152.0020  200.7860 H     3108  MOL3108     0.2052
  22324  H        165.7980  150.4790  200.3850 H     3108  MOL3108     0.2052
  22325  O        129.1870  187.3790  224.7450 O.3   3109  MOL3109    -0.4105
  22326  H        129.7710  187.8230  225.3950 H     3109  MOL3109     0.2052
  22327  H        128.3490  187.9050  224.6690 H     3109  MOL3109     0.2052
  22328  O        153.6970  195.9100  162.1560 O.3   3110  MOL3110    -0.4105
  22329  H        153.9180  195.4390  161.3250 H     3110  MOL3110     0.2052
  22330  H        152.8820  196.4540  161.9980 H     3110  MOL3110     0.2052
  22331  O         43.8830   48.4120  156.6470 O.3   3111  MOL3111    -0.4105
  22332  H         43.6860   47.4530  156.6290 H     3111  MOL3111     0.2052
  22333  H         43.8090   48.7270  157.5850 H     3111  MOL3111     0.2052
  22334  O         67.8100  137.3500  247.2220 O.3   3112  MOL3112    -0.4105
  22335  H         67.3130  138.0230  246.7110 H     3112  MOL3112     0.2052
  22336  H         68.1460  136.6650  246.5870 H     3112  MOL3112     0.2052
  22337  O        166.8500  145.3940  297.5440 O.3   3113  MOL3113    -0.4105
  22338  H        166.1430  145.8170  297.0140 H     3113  MOL3113     0.2052
  22339  H        167.5680  145.1000  296.9250 H     3113  MOL3113     0.2052
  22340  O        186.9500  172.4310  119.0740 O.3   3114  MOL3114    -0.4105
  22341  H        186.1560  171.8580  119.0940 H     3114  MOL3114     0.2052
  22342  H        187.7540  171.8490  119.0950 H     3114  MOL3114     0.2052
  22343  O        125.6300  117.7900  187.4110 O.3   3115  MOL3115    -0.4105
  22344  H        125.3280  116.8580  187.3780 H     3115  MOL3115     0.2052
  22345  H        126.5900  117.8140  187.1610 H     3115  MOL3115     0.2052
  22346  O        171.7230  168.9000  124.9010 O.3   3116  MOL3116    -0.4105
  22347  H        172.1670  168.0520  124.6900 H     3116  MOL3116     0.2052
  22348  H        170.7920  168.7020  125.1830 H     3116  MOL3116     0.2052
  22349  O        166.9820  111.2080   11.6190 O.3   3117  MOL3117    -0.4105
  22350  H        166.6770  110.2790   11.5480 H     3117  MOL3117     0.2052
  22351  H        167.9740  111.2080   11.6490 H     3117  MOL3117     0.2052
  22352  O         93.6940  137.8520   23.0070 O.3   3118  MOL3118    -0.4105
  22353  H         92.8820  138.3920   22.9110 H     3118  MOL3118     0.2052
  22354  H         93.4270  136.9270   23.2430 H     3118  MOL3118     0.2052
  22355  O        144.4440  109.0960    9.6220 O.3   3119  MOL3119    -0.4105
  22356  H        144.1830  108.1520    9.5910 H     3119  MOL3119     0.2052
  22357  H        145.1660  109.1960   10.2960 H     3119  MOL3119     0.2052
  22358  O        118.2520  118.6870   52.1840 O.3   3120  MOL3120    -0.4105
  22359  H        117.6560  118.4760   51.4350 H     3120  MOL3120     0.2052
  22360  H        117.7040  119.0620   52.9210 H     3120  MOL3120     0.2052
  22361  O        125.0860  162.3960   42.0990 O.3   3121  MOL3121    -0.4105
  22362  H        126.0030  162.6600   41.8770 H     3121  MOL3121     0.2052
  22363  H        124.5320  162.4800   41.2800 H     3121  MOL3121     0.2052
  22364  O         22.2670   62.4310   94.2280 O.3   3122  MOL3122    -0.4105
  22365  H         22.9130   62.9180   93.6750 H     3122  MOL3122     0.2052
  22366  H         22.7670   61.7940   94.8010 H     3122  MOL3122     0.2052
  22367  O        126.6470  127.6800  217.5170 O.3   3123  MOL3123    -0.4105
  22368  H        125.8810  127.0700  217.4850 H     3123  MOL3123     0.2052
  22369  H        126.8290  127.9980  216.5950 H     3123  MOL3123     0.2052
  22370  O        153.3850  183.6060  167.7870 O.3   3124  MOL3124    -0.4105
  22371  H        153.3070  184.4380  168.3000 H     3124  MOL3124     0.2052
  22372  H        154.3470  183.3740  167.7150 H     3124  MOL3124     0.2052
  22373  O        161.5220   13.7020   13.6950 O.3   3125  MOL3125    -0.4105
  22374  H        162.0670   13.6260   12.8840 H     3125  MOL3125     0.2052
  22375  H        161.6600   14.6070   14.0780 H     3125  MOL3125     0.2052
  22376  O         94.6390    7.5150   59.8610 O.3   3126  MOL3126    -0.4105
  22377  H         95.3030    6.8070   59.9950 H     3126  MOL3126     0.2052
  22378  H         95.1030    8.3900   59.9130 H     3126  MOL3126     0.2052
  22379  O        187.6950  102.2280  299.8190 O.3   3127  MOL3127    -0.4105
  22380  H        187.1070  102.3150  299.0400 H     3127  MOL3127     0.2052
  22381  H        188.5640  101.8620  299.5120 H     3127  MOL3127     0.2052
  22382  O        170.5250   96.5610   69.7500 O.3   3128  MOL3128    -0.4105
  22383  H        170.4470   96.3130   68.8050 H     3128  MOL3128     0.2052
  22384  H        171.4810   96.5010   70.0090 H     3128  MOL3128     0.2052
  22385  O        183.7640  137.5500  177.5920 O.3   3129  MOL3129    -0.4105
  22386  H        184.1520  138.4060  177.8710 H     3129  MOL3129     0.2052
  22387  H        183.7250  136.9540  178.3850 H     3129  MOL3129     0.2052
  22388  O        184.2700   51.8830  228.5090 O.3   3130  MOL3130    -0.4105
  22389  H        184.9110   52.6230  228.5560 H     3130  MOL3130     0.2052
  22390  H        183.3560   52.2660  228.4680 H     3130  MOL3130     0.2052
  22391  O        198.1510  107.1010   61.4280 O.3   3131  MOL3131    -0.4105
  22392  H        198.4470  106.1940   61.2030 H     3131  MOL3131     0.2052
  22393  H        198.0340  107.1540   62.4110 H     3131  MOL3131     0.2052
  22394  O        162.3070  158.3800  244.6720 O.3   3132  MOL3132    -0.4105
  22395  H        163.2170  158.0280  244.5780 H     3132  MOL3132     0.2052
  22396  H        162.3360  159.3590  244.5130 H     3132  MOL3132     0.2052
  22397  O        125.9600  160.3660    1.9740 O.3   3133  MOL3133    -0.4105
  22398  H        125.8070  159.5760    1.4150 H     3133  MOL3133     0.2052
  22399  H        126.9380  160.5270    2.0220 H     3133  MOL3133     0.2052
  22400  O         31.2140   84.1150   78.5310 O.3   3134  MOL3134    -0.4105
  22401  H         31.8400   84.8220   78.7930 H     3134  MOL3134     0.2052
  22402  H         30.2910   84.4680   78.6240 H     3134  MOL3134     0.2052
  22403  O        155.1830   43.7830  168.5520 O.3   3135  MOL3135    -0.4105
  22404  H        154.4400   43.8260  169.1890 H     3135  MOL3135     0.2052
  22405  H        154.8850   43.2640  167.7610 H     3135  MOL3135     0.2052
  22406  O        162.5240   23.0100  206.1650 O.3   3136  MOL3136    -0.4105
  22407  H        163.3920   23.2680  206.5410 H     3136  MOL3136     0.2052
  22408  H        162.5740   23.1000  205.1780 H     3136  MOL3136     0.2052
  22409  O        162.2520  170.2530  202.7910 O.3   3137  MOL3137    -0.4105
  22410  H        163.1220  170.6220  202.5330 H     3137  MOL3137     0.2052
  22411  H        161.5670  170.6030  202.1640 H     3137  MOL3137     0.2052
  22412  O         43.4350   46.3410  117.0890 O.3   3138  MOL3138    -0.4105
  22413  H         42.8480   47.1210  116.9940 H     3138  MOL3138     0.2052
  22414  H         44.3640   46.6660  117.2140 H     3138  MOL3138     0.2052
  22415  O         76.0210   29.3900  260.6980 O.3   3139  MOL3139    -0.4105
  22416  H         75.3060   28.9060  260.2350 H     3139  MOL3139     0.2052
  22417  H         76.8240   28.8070  260.7260 H     3139  MOL3139     0.2052
  22418  O         89.4140   13.4420   83.0690 O.3   3140  MOL3140    -0.4105
  22419  H         89.9260   12.9390   82.4020 H     3140  MOL3140     0.2052
  22420  H         88.4870   13.5510   82.7310 H     3140  MOL3140     0.2052
  22421  O        136.0280   22.8350  167.2960 O.3   3141  MOL3141    -0.4105
  22422  H        136.5000   21.9830  167.4050 H     3141  MOL3141     0.2052
  22423  H        135.0540   22.6620  167.3700 H     3141  MOL3141     0.2052
  22424  O         39.1120   34.9870  209.7680 O.3   3142  MOL3142    -0.4105
  22425  H         38.3420   35.4750  209.4090 H     3142  MOL3142     0.2052
  22426  H         39.7120   34.7560  209.0130 H     3142  MOL3142     0.2052
  22427  O        126.7410   31.5110   93.3140 O.3   3143  MOL3143    -0.4105
  22428  H        126.3150   31.6310   92.4400 H     3143  MOL3143     0.2052
  22429  H        126.1940   31.9850   93.9930 H     3143  MOL3143     0.2052
  22430  O        147.4750   97.6490   16.8570 O.3   3144  MOL3144    -0.4105
  22431  H        147.0130   96.8050   16.6680 H     3144  MOL3144     0.2052
  22432  H        148.4260   97.4440   17.0540 H     3144  MOL3144     0.2052
  22433  O         24.9860   36.2900  290.0370 O.3   3145  MOL3145    -0.4105
  22434  H         25.8530   36.7450  290.0090 H     3145  MOL3145     0.2052
  22435  H         25.1460   35.3120  289.9870 H     3145  MOL3145     0.2052
  22436  O        173.2050   50.7000  176.8770 O.3   3146  MOL3146    -0.4105
  22437  H        172.5020   51.3720  176.7600 H     3146  MOL3146     0.2052
  22438  H        173.0450   50.2310  177.7370 H     3146  MOL3146     0.2052
  22439  O        153.2330  158.9180   14.3600 O.3   3147  MOL3147    -0.4105
  22440  H        153.4400  159.8700   14.4590 H     3147  MOL3147     0.2052
  22441  H        153.9810  158.3960   14.7510 H     3147  MOL3147     0.2052
  22442  O         31.0360  150.4220   36.8270 O.3   3148  MOL3148    -0.4105
  22443  H         31.7930  150.2620   37.4280 H     3148  MOL3148     0.2052
  22444  H         30.8840  151.4020   36.7740 H     3148  MOL3148     0.2052
  22445  O         50.9500  157.4100    5.7740 O.3   3149  MOL3149    -0.4105
  22446  H         51.6400  156.7280    5.9120 H     3149  MOL3149     0.2052
  22447  H         50.0840  156.9500    5.6240 H     3149  MOL3149     0.2052
  22448  O        160.9620   40.6760  262.3940 O.3   3150  MOL3150    -0.4105
  22449  H        160.9200   41.5110  261.8820 H     3150  MOL3150     0.2052
  22450  H        160.4200   39.9940  261.9200 H     3150  MOL3150     0.2052
  22451  O          7.9310  184.1680   53.6360 O.3   3151  MOL3151    -0.4105
  22452  H          7.4740  184.8450   54.1770 H     3151  MOL3151     0.2052
  22453  H          7.2430  183.5700   53.2420 H     3151  MOL3151     0.2052
  22454  O         34.4130    0.3280  241.1550 O.3   3152  MOL3152    -0.4105
  22455  H         34.8630    1.1710  240.9330 H     3152  MOL3152     0.2052
  22456  H         34.7440    0.0240  242.0400 H     3152  MOL3152     0.2052
  22457  O         11.7560   40.1910   40.3740 O.3   3153  MOL3153    -0.4105
  22458  H         11.9480   41.0090   39.8700 H     3153  MOL3153     0.2052
  22459  H         12.1720   40.2750   41.2710 H     3153  MOL3153     0.2052
  22460  O        195.4060   75.5030  153.3140 O.3   3154  MOL3154    -0.4105
  22461  H        194.4750   75.3770  153.0350 H     3154  MOL3154     0.2052
  22462  H        195.4810   76.3880  153.7560 H     3154  MOL3154     0.2052
  22463  O          1.1040  198.9170  190.0360 O.3   3155  MOL3155    -0.4105
  22464  H          2.0470  199.1770  190.1100 H     3155  MOL3155     0.2052
  22465  H          1.0440  197.9330  190.1440 H     3155  MOL3155     0.2052
  22466  O        111.4720  160.4220   49.0200 O.3   3156  MOL3156    -0.4105
  22467  H        111.5500  161.2070   49.6020 H     3156  MOL3156     0.2052
  22468  H        111.8290  160.6610   48.1260 H     3156  MOL3156     0.2052
  22469  O        154.1450  162.7320   97.3110 O.3   3157  MOL3157    -0.4105
  22470  H        154.0570  161.7580   97.2480 H     3157  MOL3157     0.2052
  22471  H        154.6760  163.0470   96.5340 H     3157  MOL3157     0.2052
  22472  O        184.6350   67.4950  248.1640 O.3   3158  MOL3158    -0.4105
  22473  H        185.1980   66.7100  248.3290 H     3158  MOL3158     0.2052
  22474  H        183.6950   67.1880  248.0730 H     3158  MOL3158     0.2052
  22475  O        147.2080   76.4050  251.0360 O.3   3159  MOL3159    -0.4105
  22476  H        147.8260   76.0510  250.3630 H     3159  MOL3159     0.2052
  22477  H        146.5240   76.9540  250.5710 H     3159  MOL3159     0.2052
  22478  O         77.4520  193.4120   55.8190 O.3   3160  MOL3160    -0.4105
  22479  H         76.5180  193.1200   55.7610 H     3160  MOL3160     0.2052
  22480  H         77.9320  192.7960   56.4310 H     3160  MOL3160     0.2052
  22481  O         17.3190  109.2640  253.1170 O.3   3161  MOL3161    -0.4105
  22482  H         16.9710  109.8520  253.8200 H     3161  MOL3161     0.2052
  22483  H         16.8730  109.5040  252.2640 H     3161  MOL3161     0.2052
  22484  O        148.8740  167.3490  159.7000 O.3   3162  MOL3162    -0.4105
  22485  H        148.6600  168.1860  160.1630 H     3162  MOL3162     0.2052
  22486  H        148.6010  166.5940  160.2820 H     3162  MOL3162     0.2052
  22487  O        162.1100  120.6640   45.5970 O.3   3163  MOL3163    -0.4105
  22488  H        162.6070  120.7500   46.4370 H     3163  MOL3163     0.2052
  22489  H        162.2980  119.7670   45.2150 H     3163  MOL3163     0.2052
  22490  O         17.6690   71.4040   97.8500 O.3   3164  MOL3164    -0.4105
  22491  H         17.5480   71.4970   98.8180 H     3164  MOL3164     0.2052
  22492  H         16.7720   71.3610   97.4280 H     3164  MOL3164     0.2052
  22493  O        198.2790  101.7070  226.9150 O.3   3165  MOL3165    -0.4105
  22494  H        198.5280  101.2920  226.0630 H     3165  MOL3165     0.2052
  22495  H        197.6510  101.0990  227.3850 H     3165  MOL3165     0.2052
  22496  O        187.5040  179.9770  169.7110 O.3   3166  MOL3166    -0.4105
  22497  H        188.3710  179.7700  170.1180 H     3166  MOL3166     0.2052
  22498  H        187.6150  179.9700  168.7250 H     3166  MOL3166     0.2052
  22499  O         53.7250  132.0880  187.4390 O.3   3167  MOL3167    -0.4105
  22500  H         54.5050  131.5420  187.6730 H     3167  MOL3167     0.2052
  22501  H         53.1040  131.5300  186.9040 H     3167  MOL3167     0.2052
  22502  O         36.5550   57.2240  228.4440 O.3   3168  MOL3168    -0.4105
  22503  H         35.7260   56.7300  228.6150 H     3168  MOL3168     0.2052
  22504  H         36.4770   57.6640  227.5580 H     3168  MOL3168     0.2052
  22505  O        173.6960   27.4390   90.1040 O.3   3169  MOL3169    -0.4105
  22506  H        174.5720   27.2450   90.4990 H     3169  MOL3169     0.2052
  22507  H        173.4060   26.6430   89.5870 H     3169  MOL3169     0.2052
  22508  O         13.0290   59.8060  274.3270 O.3   3170  MOL3170    -0.4105
  22509  H         12.0640   59.9740  274.2910 H     3170  MOL3170     0.2052
  22510  H         13.3930   59.8850  273.4070 H     3170  MOL3170     0.2052
  22511  O        106.0560  199.6460  283.1710 O.3   3171  MOL3171    -0.4105
  22512  H        105.9020  198.7740  283.5910 H     3171  MOL3171     0.2052
  22513  H        106.5520  199.4990  282.3240 H     3171  MOL3171     0.2052
  22514  O        187.2470   68.7630   60.1030 O.3   3172  MOL3172    -0.4105
  22515  H        186.7260   69.3720   60.6670 H     3172  MOL3172     0.2052
  22516  H        188.1380   69.1710   59.9460 H     3172  MOL3172     0.2052
  22517  O        116.0650  167.3670  231.2320 O.3   3173  MOL3173    -0.4105
  22518  H        116.8060  166.7710  231.4680 H     3173  MOL3173     0.2052
  22519  H        115.2240  166.9670  231.5750 H     3173  MOL3173     0.2052
  22520  O         78.7800   73.4720   54.3030 O.3   3174  MOL3174    -0.4105
  22521  H         77.8020   73.4960   54.2500 H     3174  MOL3174     0.2052
  22522  H         79.0490   72.5910   54.6750 H     3174  MOL3174     0.2052
  22523  O          4.0820  172.3440  196.3090 O.3   3175  MOL3175    -0.4105
  22524  H          3.2500  172.8600  196.2650 H     3175  MOL3175     0.2052
  22525  H          3.8500  171.3790  196.3110 H     3175  MOL3175     0.2052
  22526  O        157.9740   22.4100  226.8870 O.3   3176  MOL3176    -0.4105
  22527  H        158.1060   23.1100  226.2140 H     3176  MOL3176     0.2052
  22528  H        157.2490   21.8100  226.5720 H     3176  MOL3176     0.2052
  22529  O         85.9410  145.8040  239.0850 O.3   3177  MOL3177    -0.4105
  22530  H         85.6050  146.4540  239.7360 H     3177  MOL3177     0.2052
  22531  H         86.4970  145.1390  239.5680 H     3177  MOL3177     0.2052
  22532  O         94.2540  109.0030   29.7760 O.3   3178  MOL3178    -0.4105
  22533  H         94.2310  109.1420   30.7460 H     3178  MOL3178     0.2052
  22534  H         95.1100  108.5570   29.5470 H     3178  MOL3178     0.2052
  22535  O         97.7330   49.7300  249.7340 O.3   3179  MOL3179    -0.4105
  22536  H         98.1410   48.9410  249.3210 H     3179  MOL3179     0.2052
  22537  H         98.4480   50.3970  249.9040 H     3179  MOL3179     0.2052
  22538  O        152.5980  174.6060   49.5350 O.3   3180  MOL3180    -0.4105
  22539  H        153.0320  173.7270   49.5310 H     3180  MOL3180     0.2052
  22540  H        152.8010  175.0570   48.6750 H     3180  MOL3180     0.2052
  22541  O        166.8610  166.5060  105.6190 O.3   3181  MOL3181    -0.4105
  22542  H        166.6710  167.1240  104.8820 H     3181  MOL3181     0.2052
  22543  H        166.9350  165.5900  105.2440 H     3181  MOL3181     0.2052
  22544  O        193.7580   37.9560  173.6390 O.3   3182  MOL3182    -0.4105
  22545  H        193.7280   37.2880  172.9230 H     3182  MOL3182     0.2052
  22546  H        194.6940   38.0240  173.9620 H     3182  MOL3182     0.2052
  22547  O         49.3810   88.4450  244.3450 O.3   3183  MOL3183    -0.4105
  22548  H         49.6610   87.8660  243.6050 H     3183  MOL3183     0.2052
  22549  H         48.4640   88.7720  244.1530 H     3183  MOL3183     0.2052
  22550  O         76.0240  154.0080  295.0260 O.3   3184  MOL3184    -0.4105
  22551  H         75.3140  154.6250  294.7500 H     3184  MOL3184     0.2052
  22552  H         76.7180  154.5290  295.5070 H     3184  MOL3184     0.2052
  22553  O         68.6230  171.2510   46.8230 O.3   3185  MOL3185    -0.4105
  22554  H         67.9730  170.9290   47.4820 H     3185  MOL3185     0.2052
  22555  H         68.4050  170.8410   45.9460 H     3185  MOL3185     0.2052
  22556  O        172.0430  103.1020  250.1960 O.3   3186  MOL3186    -0.4105
  22557  H        172.3590  102.1740  250.2070 H     3186  MOL3186     0.2052
  22558  H        171.6470  103.2850  249.3050 H     3186  MOL3186     0.2052
  22559  O         88.3760  134.2200  295.9940 O.3   3187  MOL3187    -0.4105
  22560  H         89.0200  134.2390  296.7320 H     3187  MOL3187     0.2052
  22561  H         87.9040  135.0920  295.9720 H     3187  MOL3187     0.2052
  22562  O         86.8230   20.6250  265.5610 O.3   3188  MOL3188    -0.4105
  22563  H         87.6220   20.5820  264.9950 H     3188  MOL3188     0.2052
  22564  H         86.5140   19.6970  265.7330 H     3188  MOL3188     0.2052
  22565  O        197.6950   74.2430   58.2260 O.3   3189  MOL3189    -0.4105
  22566  H        198.1880   73.5100   58.6510 H     3189  MOL3189     0.2052
  22567  H        198.3540   74.8780   57.8430 H     3189  MOL3189     0.2052
  22568  O        175.6010   38.6810  159.9960 O.3   3190  MOL3190    -0.4105
  22569  H        174.9910   37.9700  160.2840 H     3190  MOL3190     0.2052
  22570  H        175.2170   39.5520  160.2740 H     3190  MOL3190     0.2052
  22571  O         55.7640  148.7120   46.8030 O.3   3191  MOL3191    -0.4105
  22572  H         55.6450  147.7470   46.6780 H     3191  MOL3191     0.2052
  22573  H         56.4730  149.0200   46.1800 H     3191  MOL3191     0.2052
  22574  O        149.0340  114.1170  264.4560 O.3   3192  MOL3192    -0.4105
  22575  H        149.4110  115.0210  264.4270 H     3192  MOL3192     0.2052
  22576  H        148.1520  114.1330  264.0010 H     3192  MOL3192     0.2052
  22577  O         56.1630  176.1010  123.8370 O.3   3193  MOL3193    -0.4105
  22578  H         56.9750  175.5630  123.9470 H     3193  MOL3193     0.2052
  22579  H         56.3330  177.0010  124.2200 H     3193  MOL3193     0.2052
  22580  O        186.6500  198.3550  155.7870 O.3   3194  MOL3194    -0.4105
  22581  H        186.1550  198.7390  155.0330 H     3194  MOL3194     0.2052
  22582  H        185.9950  197.9720  156.4260 H     3194  MOL3194     0.2052
  22583  O         58.5410  153.1630   55.1640 O.3   3195  MOL3195    -0.4105
  22584  H         57.8580  152.9460   55.8330 H     3195  MOL3195     0.2052
  22585  H         59.1410  152.3790   55.0680 H     3195  MOL3195     0.2052
  22586  O        166.8060  181.7160   37.8940 O.3   3196  MOL3196    -0.4105
  22587  H        167.2690  180.8540   37.9520 H     3196  MOL3196     0.2052
  22588  H        167.4880  182.4280   37.7820 H     3196  MOL3196     0.2052
  22589  O         61.7420  171.7720  153.2730 O.3   3197  MOL3197    -0.4105
  22590  H         62.2740  171.4170  154.0160 H     3197  MOL3197     0.2052
  22591  H         62.3520  171.9480  152.5110 H     3197  MOL3197     0.2052
  22592  O        127.7960  170.2880  195.1420 O.3   3198  MOL3198    -0.4105
  22593  H        126.9970  170.7100  195.5210 H     3198  MOL3198     0.2052
  22594  H        127.5200  169.4490  194.6910 H     3198  MOL3198     0.2052
  22595  O        147.4840  185.0180  232.0430 O.3   3199  MOL3199    -0.4105
  22596  H        147.3220  185.9090  231.6680 H     3199  MOL3199     0.2052
  22597  H        148.3460  185.0410  232.5350 H     3199  MOL3199     0.2052
  22598  O         32.6090   58.1280  153.5090 O.3   3200  MOL3200    -0.4105
  22599  H         31.7090   58.0020  153.8770 H     3200  MOL3200     0.2052
  22600  H         32.7620   59.1010  153.3910 H     3200  MOL3200     0.2052
  22601  O          3.9350  148.0530  245.9210 O.3   3201  MOL3201    -0.4105
  22602  H          3.9500  148.7490  246.6100 H     3201  MOL3201     0.2052
  22603  H          3.5410  148.4390  245.0970 H     3201  MOL3201     0.2052
  22604  O         48.7700  127.3440   89.3550 O.3   3202  MOL3202    -0.4105
  22605  H         49.3030  128.0630   89.7530 H     3202  MOL3202     0.2052
  22606  H         47.8480  127.6830   89.2140 H     3202  MOL3202     0.2052
  22607  O         75.8670   40.7000  119.1970 O.3   3203  MOL3203    -0.4105
  22608  H         76.1580   39.7820  119.0150 H     3203  MOL3203     0.2052
  22609  H         75.0170   40.6610  119.7080 H     3203  MOL3203     0.2052
  22610  O          8.8120  178.2490  264.3810 O.3   3204  MOL3204    -0.4105
  22611  H          8.3410  178.6570  265.1370 H     3204  MOL3204     0.2052
  22612  H          8.1710  177.6740  263.8890 H     3204  MOL3204     0.2052
  22613  O        157.5640   61.5020  143.9260 O.3   3205  MOL3205    -0.4105
  22614  H        156.7050   61.0620  143.7530 H     3205  MOL3205     0.2052
  22615  H        158.2400   60.8000  144.1110 H     3205  MOL3205     0.2052
  22616  O         44.7780   66.5520  150.8900 O.3   3206  MOL3206    -0.4105
  22617  H         44.1270   67.2390  150.6350 H     3206  MOL3206     0.2052
  22618  H         45.0440   66.0570  150.0730 H     3206  MOL3206     0.2052
  22619  O        145.0650   44.9220  188.9800 O.3   3207  MOL3207    -0.4105
  22620  H        144.5590   44.4640  188.2770 H     3207  MOL3207     0.2052
  22621  H        144.4850   44.9980  189.7810 H     3207  MOL3207     0.2052
  22622  O         62.0650   78.1930   27.9160 O.3   3208  MOL3208    -0.4105
  22623  H         61.5180   78.5930   28.6240 H     3208  MOL3208     0.2052
  22624  H         61.7110   77.2860   27.7250 H     3208  MOL3208     0.2052
  22625  O         74.7550   85.2760  195.9160 O.3   3209  MOL3209    -0.4105
  22626  H         75.5130   85.6150  196.4370 H     3209  MOL3209     0.2052
  22627  H         74.5770   85.9140  195.1770 H     3209  MOL3209     0.2052
  22628  O         97.5500  144.5410   31.7130 O.3   3210  MOL3210    -0.4105
  22629  H         97.7200  143.6160   31.4380 H     3210  MOL3210     0.2052
  22630  H         98.3870  144.9080   32.1010 H     3210  MOL3210     0.2052
  22631  O         59.6790    9.1630   79.3270 O.3   3211  MOL3211    -0.4105
  22632  H         60.2450    9.4250   78.5710 H     3211  MOL3211     0.2052
  22633  H         60.2690    8.9010   80.0800 H     3211  MOL3211     0.2052
  22634  O        177.1430   25.0460   43.3880 O.3   3212  MOL3212    -0.4105
  22635  H        177.0020   25.4780   44.2570 H     3212  MOL3212     0.2052
  22636  H        176.2600   24.7520   43.0410 H     3212  MOL3212     0.2052
  22637  O        102.5310  151.5040  264.5250 O.3   3213  MOL3213    -0.4105
  22638  H        101.7190  151.3350  265.0470 H     3213  MOL3213     0.2052
  22639  H        103.2120  151.9000  265.1300 H     3213  MOL3213     0.2052
  22640  O         67.8270  187.7650  183.7310 O.3   3214  MOL3214    -0.4105
  22641  H         66.9720  188.2080  183.5470 H     3214  MOL3214     0.2052
  22642  H         67.7300  187.2400  184.5670 H     3214  MOL3214     0.2052
  22643  O        125.9090   31.8680  195.1950 O.3   3215  MOL3215    -0.4105
  22644  H        125.3250   31.4330  194.5390 H     3215  MOL3215     0.2052
  22645  H        125.3670   32.5250  195.7050 H     3215  MOL3215     0.2052
  22646  O        176.1680  141.4660  102.9250 O.3   3216  MOL3216    -0.4105
  22647  H        176.0280  142.2160  102.3090 H     3216  MOL3216     0.2052
  22648  H        175.3030  140.9940  103.0410 H     3216  MOL3216     0.2052
  22649  O         74.2900   20.0170  261.7830 O.3   3217  MOL3217    -0.4105
  22650  H         73.8330   19.1510  261.8110 H     3217  MOL3217     0.2052
  22651  H         75.2350   19.8790  262.0510 H     3217  MOL3217     0.2052
  22652  O        166.2210   51.1110  142.8630 O.3   3218  MOL3218    -0.4105
  22653  H        165.3330   51.1530  142.4490 H     3218  MOL3218     0.2052
  22654  H        166.4050   51.9870  143.2910 H     3218  MOL3218     0.2052
  22655  O         75.7160    1.9990  296.7330 O.3   3219  MOL3219    -0.4105
  22656  H         74.9470    2.3940  296.2710 H     3219  MOL3219     0.2052
  22657  H         76.4970    2.5970  296.6030 H     3219  MOL3219     0.2052
  22658  O         54.9010   82.8910    2.6130 O.3   3220  MOL3220    -0.4105
  22659  H         55.2760   83.7940    2.5470 H     3220  MOL3220     0.2052
  22660  H         55.6530   82.2480    2.7020 H     3220  MOL3220     0.2052
  22661  O        144.5030   27.3440  146.7020 O.3   3221  MOL3221    -0.4105
  22662  H        144.6820   28.1680  146.2020 H     3221  MOL3221     0.2052
  22663  H        143.6770   27.4770  147.2350 H     3221  MOL3221     0.2052
  22664  O        113.2310  170.8530  260.7260 O.3   3222  MOL3222    -0.4105
  22665  H        113.6950  171.6470  261.0650 H     3222  MOL3222     0.2052
  22666  H        113.8120  170.0640  260.8820 H     3222  MOL3222     0.2052
  22667  O         53.7720   89.9940  219.5400 O.3   3223  MOL3223    -0.4105
  22668  H         54.6760   89.6440  219.4010 H     3223  MOL3223     0.2052
  22669  H         53.6310   90.7490  218.9110 H     3223  MOL3223     0.2052
  22670  O         22.7730  161.3410   61.0430 O.3   3224  MOL3224    -0.4105
  22671  H         22.0430  161.8620   60.6490 H     3224  MOL3224     0.2052
  22672  H         22.6670  161.3540   62.0290 H     3224  MOL3224     0.2052
  22673  O         92.6380   37.5770   14.5070 O.3   3225  MOL3225    -0.4105
  22674  H         93.1300   36.8510   14.9460 H     3225  MOL3225     0.2052
  22675  H         91.6890   37.5260   14.7930 H     3225  MOL3225     0.2052
  22676  O         47.6660  136.7780  283.2690 O.3   3226  MOL3226    -0.4105
  22677  H         47.1910  137.4700  283.7740 H     3226  MOL3226     0.2052
  22678  H         48.3770  137.2180  282.7330 H     3226  MOL3226     0.2052
  22679  O          9.1820  167.0310  277.5780 O.3   3227  MOL3227    -0.4105
  22680  H          9.8070  167.4170  278.2260 H     3227  MOL3227     0.2052
  22681  H          9.3390  166.0520  277.5410 H     3227  MOL3227     0.2052
  22682  O        184.3540   72.2680  215.5590 O.3   3228  MOL3228    -0.4105
  22683  H        184.1790   73.1550  215.9370 H     3228  MOL3228     0.2052
  22684  H        183.6910   71.6330  215.9370 H     3228  MOL3228     0.2052
  22685  O        176.3850  102.4750  278.7940 O.3   3229  MOL3229    -0.4105
  22686  H        177.1160  103.1270  278.8390 H     3229  MOL3229     0.2052
  22687  H        176.5930  101.7320  279.4180 H     3229  MOL3229     0.2052
  22688  O        173.1120   45.5650  276.3390 O.3   3230  MOL3230    -0.4105
  22689  H        173.4330   46.3990  275.9360 H     3230  MOL3230     0.2052
  22690  H        172.4350   45.1680  275.7320 H     3230  MOL3230     0.2052
  22691  O        121.9750   55.7660   41.9240 O.3   3231  MOL3231    -0.4105
  22692  H        122.9180   55.9700   42.0960 H     3231  MOL3231     0.2052
  22693  H        121.6660   56.3380   41.1740 H     3231  MOL3231     0.2052
  22694  O        177.7750  137.7140  261.8690 O.3   3232  MOL3232    -0.4105
  22695  H        176.8960  137.5830  262.2840 H     3232  MOL3232     0.2052
  22696  H        178.2180  138.4810  262.3160 H     3232  MOL3232     0.2052
  22697  O        106.1400  177.8080  250.8580 O.3   3233  MOL3233    -0.4105
  22698  H        106.2030  178.0250  249.9050 H     3233  MOL3233     0.2052
  22699  H        105.1870  177.6340  251.0740 H     3233  MOL3233     0.2052
  22700  O        125.4100   80.3330  265.0380 O.3   3234  MOL3234    -0.4105
  22701  H        124.9220   79.4850  264.9830 H     3234  MOL3234     0.2052
  22702  H        126.3790   80.1300  265.1030 H     3234  MOL3234     0.2052
  22703  O         97.1570   94.4560   52.4730 O.3   3235  MOL3235    -0.4105
  22704  H         97.8260   94.2690   53.1640 H     3235  MOL3235     0.2052
  22705  H         97.2800   93.8020   51.7370 H     3235  MOL3235     0.2052
  22706  O         91.8760   90.7070  259.4830 O.3   3236  MOL3236    -0.4105
  22707  H         92.1760   89.7740  259.4750 H     3236  MOL3236     0.2052
  22708  H         90.8980   90.7200  259.3120 H     3236  MOL3236     0.2052
  22709  O          3.6260   28.9180  237.8950 O.3   3237  MOL3237    -0.4105
  22710  H          4.5060   29.2140  237.5840 H     3237  MOL3237     0.2052
  22711  H          3.6730   28.7820  238.8770 H     3237  MOL3237     0.2052
  22712  O         87.3360  196.9700  147.0870 O.3   3238  MOL3238    -0.4105
  22713  H         86.4560  196.5510  146.9780 H     3238  MOL3238     0.2052
  22714  H         88.0160  196.3780  146.6730 H     3238  MOL3238     0.2052
  22715  O        141.0120   77.4810  224.1400 O.3   3239  MOL3239    -0.4105
  22716  H        140.9460   78.4520  224.2540 H     3239  MOL3239     0.2052
  22717  H        140.0930   77.1130  224.0700 H     3239  MOL3239     0.2052
  22718  O        167.5740  181.2720  119.6570 O.3   3240  MOL3240    -0.4105
  22719  H        167.6520  182.2490  119.6410 H     3240  MOL3240     0.2052
  22720  H        168.3870  180.9030  120.0890 H     3240  MOL3240     0.2052
  22721  O          4.3340  112.9920  282.2900 O.3   3241  MOL3241    -0.4105
  22722  H          5.0860  113.4220  281.8310 H     3241  MOL3241     0.2052
  22723  H          3.7870  112.5170  281.6110 H     3241  MOL3241     0.2052
  22724  O         83.2320   77.5320  207.2280 O.3   3242  MOL3242    -0.4105
  22725  H         82.4480   78.0770  207.0080 H     3242  MOL3242     0.2052
  22726  H         83.6380   77.8930  208.0590 H     3242  MOL3242     0.2052
  22727  O         62.7580   16.1660  185.7710 O.3   3243  MOL3243    -0.4105
  22728  H         62.4440   16.8520  186.3970 H     3243  MOL3243     0.2052
  22729  H         61.9690   15.7860  185.3050 H     3243  MOL3243     0.2052
  22730  O        190.1850  138.3880  258.0400 O.3   3244  MOL3244    -0.4105
  22731  H        189.3850  138.8000  257.6510 H     3244  MOL3244     0.2052
  22732  H        190.8880  139.0840  258.1150 H     3244  MOL3244     0.2052
  22733  O        115.4730  113.3630  223.2660 O.3   3245  MOL3245    -0.4105
  22734  H        115.9990  112.5550  223.0900 H     3245  MOL3245     0.2052
  22735  H        114.5340  113.0900  223.4350 H     3245  MOL3245     0.2052
  22736  O        168.3720   68.5320   38.4560 O.3   3246  MOL3246    -0.4105
  22737  H        167.4480   68.8520   38.5110 H     3246  MOL3246     0.2052
  22738  H        168.3610   67.6130   38.0810 H     3246  MOL3246     0.2052
  22739  O        119.8740  111.1730  225.6010 O.3   3247  MOL3247    -0.4105
  22740  H        120.8440  111.2800  225.5140 H     3247  MOL3247     0.2052
  22741  H        119.6160  110.3170  225.1710 H     3247  MOL3247     0.2052
  22742  O        195.7510  173.3910   24.9120 O.3   3248  MOL3248    -0.4105
  22743  H        195.6090  172.8350   25.7060 H     3248  MOL3248     0.2052
  22744  H        195.0230  173.2020   24.2660 H     3248  MOL3248     0.2052
  22745  O         97.3640  110.4790  266.8910 O.3   3249  MOL3249    -0.4105
  22746  H         97.7100  109.6070  266.6080 H     3249  MOL3249     0.2052
  22747  H         98.1170  111.1250  266.8990 H     3249  MOL3249     0.2052
  22748  O         37.7310   42.7170  147.9620 O.3   3250  MOL3250    -0.4105
  22749  H         38.7100   42.6850  147.9280 H     3250  MOL3250     0.2052
  22750  H         37.3900   41.7860  147.9660 H     3250  MOL3250     0.2052
  22751  O         72.1970   12.0850  246.0210 O.3   3251  MOL3251    -0.4105
  22752  H         72.2590   13.0570  246.1360 H     3251  MOL3251     0.2052
  22753  H         73.1180   11.7160  245.9980 H     3251  MOL3251     0.2052
  22754  O         64.5180  150.3950  195.7790 O.3   3252  MOL3252    -0.4105
  22755  H         64.4080  151.1760  196.3600 H     3252  MOL3252     0.2052
  22756  H         64.6410  149.5960  196.3530 H     3252  MOL3252     0.2052
  22757  O        135.4650   65.6720   53.1450 O.3   3253  MOL3253    -0.4105
  22758  H        135.3740   66.0890   52.2620 H     3253  MOL3253     0.2052
  22759  H        136.0570   64.8800   53.0540 H     3253  MOL3253     0.2052
  22760  O        110.2080   28.0460  244.6800 O.3   3254  MOL3254    -0.4105
  22761  H        109.3180   28.2960  244.3570 H     3254  MOL3254     0.2052
  22762  H        110.8820   28.4340  244.0640 H     3254  MOL3254     0.2052
  22763  O          2.3780    3.7210  189.7310 O.3   3255  MOL3255    -0.4105
  22764  H          2.7660    3.0760  190.3600 H     3255  MOL3255     0.2052
  22765  H          1.7450    3.2370  189.1410 H     3255  MOL3255     0.2052
  22766  O        191.4730  195.0900  242.8300 O.3   3256  MOL3256    -0.4105
  22767  H        191.5340  195.7690  242.1260 H     3256  MOL3256     0.2052
  22768  H        190.6210  194.5960  242.7110 H     3256  MOL3256     0.2052
  22769  O         72.9180   87.1510  257.4730 O.3   3257  MOL3257    -0.4105
  22770  H         72.3990   86.3490  257.2550 H     3257  MOL3257     0.2052
  22771  H         72.2880   87.8570  257.7720 H     3257  MOL3257     0.2052
  22772  O         50.0590  163.5630  204.8570 O.3   3258  MOL3258    -0.4105
  22773  H         49.3450  162.8930  204.8180 H     3258  MOL3258     0.2052
  22774  H         50.9300  163.0890  204.8360 H     3258  MOL3258     0.2052
  22775  O        165.1270  193.5190   80.2090 O.3   3259  MOL3259    -0.4105
  22776  H        165.0730  193.2530   81.1510 H     3259  MOL3259     0.2052
  22777  H        164.9310  192.7230   79.6500 H     3259  MOL3259     0.2052
  22778  O         88.4260  158.7520   12.8530 O.3   3260  MOL3260    -0.4105
  22779  H         88.5350  158.1000   13.5770 H     3260  MOL3260     0.2052
  22780  H         88.1550  159.6180   13.2530 H     3260  MOL3260     0.2052
  22781  O        160.9850  145.4980   35.7540 O.3   3261  MOL3261    -0.4105
  22782  H        160.6000  144.5990   35.7030 H     3261  MOL3261     0.2052
  22783  H        160.8340  145.8490   36.6700 H     3261  MOL3261     0.2052
  22784  O          8.2460  149.7800  255.0990 O.3   3262  MOL3262    -0.4105
  22785  H          8.0700  150.3800  254.3440 H     3262  MOL3262     0.2052
  22786  H          7.7370  150.1110  255.8830 H     3262  MOL3262     0.2052
  22787  O        173.4250  145.0100   83.5930 O.3   3263  MOL3263    -0.4105
  22788  H        172.7430  144.3060   83.6280 H     3263  MOL3263     0.2052
  22789  H        174.2860  144.5950   83.3250 H     3263  MOL3263     0.2052
  22790  O        162.9770   68.1420   52.0670 O.3   3264  MOL3264    -0.4105
  22791  H        162.6040   69.0460   52.1370 H     3264  MOL3264     0.2052
  22792  H        163.9490   68.1910   52.2610 H     3264  MOL3264     0.2052
  22793  O        139.3800   89.7410  295.3490 O.3   3265  MOL3265    -0.4105
  22794  H        138.8430   89.3980  296.0940 H     3265  MOL3265     0.2052
  22795  H        139.9360   90.4910  295.6870 H     3265  MOL3265     0.2052
  22796  O         59.0700  194.7530  209.7410 O.3   3266  MOL3266    -0.4105
  22797  H         59.0860  193.8130  210.0200 H     3266  MOL3266     0.2052
  22798  H         58.4590  195.2460  210.3480 H     3266  MOL3266     0.2052
  22799  O         39.9950   45.2750  121.7160 O.3   3267  MOL3267    -0.4105
  22800  H         39.8450   46.2410  121.6400 H     3267  MOL3267     0.2052
  22801  H         40.9730   45.1170  121.7790 H     3267  MOL3267     0.2052
  22802  O         29.0880   86.5430  185.1870 O.3   3268  MOL3268    -0.4105
  22803  H         28.5150   86.9440  184.5000 H     3268  MOL3268     0.2052
  22804  H         29.3150   87.2470  185.8490 H     3268  MOL3268     0.2052
  22805  O        133.9320   80.0130  265.4830 O.3   3269  MOL3269    -0.4105
  22806  H        134.8720   79.7710  265.3470 H     3269  MOL3269     0.2052
  22807  H        133.4170   79.1790  265.6360 H     3269  MOL3269     0.2052
  22808  O         24.5900    2.6060  171.3390 O.3   3270  MOL3270    -0.4105
  22809  H         25.1210    2.9210  172.1000 H     3270  MOL3270     0.2052
  22810  H         24.0220    1.8530  171.6470 H     3270  MOL3270     0.2052
  22811  O        175.7750    5.3990  245.7940 O.3   3271  MOL3271    -0.4105
  22812  H        176.4480    4.7220  246.0150 H     3271  MOL3271     0.2052
  22813  H        174.8800    4.9720  245.8310 H     3271  MOL3271     0.2052
  22814  O        171.7010  180.7150  146.9720 O.3   3272  MOL3272    -0.4105
  22815  H        171.5460  179.7480  147.0040 H     3272  MOL3272     0.2052
  22816  H        170.8250  181.1730  147.0590 H     3272  MOL3272     0.2052
  22817  O        105.3030   16.9690  141.5790 O.3   3273  MOL3273    -0.4105
  22818  H        105.9730   16.2630  141.4600 H     3273  MOL3273     0.2052
  22819  H        105.7770   17.8370  141.6540 H     3273  MOL3273     0.2052
  22820  O         29.8380  136.8560    8.8930 O.3   3274  MOL3274    -0.4105
  22821  H         29.6560  137.7820    9.1570 H     3274  MOL3274     0.2052
  22822  H         30.4520  136.8710    8.1130 H     3274  MOL3274     0.2052
  22823  O         87.7850  110.3110   15.7830 O.3   3275  MOL3275    -0.4105
  22824  H         87.1730  111.0660   15.9080 H     3275  MOL3275     0.2052
  22825  H         88.6930  110.5980   16.0640 H     3275  MOL3275     0.2052
  22826  O         24.6220  126.1680  105.4850 O.3   3276  MOL3276    -0.4105
  22827  H         25.1490  126.0420  106.3020 H     3276  MOL3276     0.2052
  22828  H         23.9250  125.4620  105.4540 H     3276  MOL3276     0.2052
  22829  O        193.8790    5.3850  219.4700 O.3   3277  MOL3277    -0.4105
  22830  H        193.7590    6.2610  219.0470 H     3277  MOL3277     0.2052
  22831  H        194.1420    5.5300  220.4150 H     3277  MOL3277     0.2052
  22832  O         83.8420   88.9830   40.9700 O.3   3278  MOL3278    -0.4105
  22833  H         83.5400   88.6190   41.8280 H     3278  MOL3278     0.2052
  22834  H         83.4290   88.4480   40.2430 H     3278  MOL3278     0.2052
  22835  O        171.6850  103.0520  123.7150 O.3   3279  MOL3279    -0.4105
  22836  H        172.2380  102.8170  122.9410 H     3279  MOL3279     0.2052
  22837  H        171.3950  103.9960  123.6140 H     3279  MOL3279     0.2052
  22838  O         14.9590  159.3260  241.1250 O.3   3280  MOL3280    -0.4105
  22839  H         15.2340  158.9810  242.0000 H     3280  MOL3280     0.2052
  22840  H         14.0170  159.0590  240.9690 H     3280  MOL3280     0.2052
  22841  O        183.5130   71.4000   64.9670 O.3   3281  MOL3281    -0.4105
  22842  H        184.1310   71.6620   64.2520 H     3281  MOL3281     0.2052
  22843  H        183.2330   72.2200   65.4510 H     3281  MOL3281     0.2052
  22844  O         13.1800   90.3470   94.0720 O.3   3282  MOL3282    -0.4105
  22845  H         12.3950   89.8830   94.4300 H     3282  MOL3282     0.2052
  22846  H         13.0640   90.4400   93.0910 H     3282  MOL3282     0.2052
  22847  O         33.0770   93.9700  272.0910 O.3   3283  MOL3283    -0.4105
  22848  H         32.8030   93.2060  271.5410 H     3283  MOL3283     0.2052
  22849  H         34.0660   94.0370  272.0580 H     3283  MOL3283     0.2052
  22850  O          3.0200  159.2530  203.7390 O.3   3284  MOL3284    -0.4105
  22851  H          3.4480  158.3710  203.7440 H     3284  MOL3284     0.2052
  22852  H          2.0840  159.1420  203.4280 H     3284  MOL3284     0.2052
  22853  O         97.6470  192.3590   40.6240 O.3   3285  MOL3285    -0.4105
  22854  H         98.4590  192.7350   41.0230 H     3285  MOL3285     0.2052
  22855  H         97.7710  191.3790   40.5310 H     3285  MOL3285     0.2052
  22856  O         56.2830  165.5370   83.0880 O.3   3286  MOL3286    -0.4105
  22857  H         57.1430  165.0690   83.1320 H     3286  MOL3286     0.2052
  22858  H         56.4540  166.5100   83.1770 H     3286  MOL3286     0.2052
  22859  O        169.1440   35.2320  284.0330 O.3   3287  MOL3287    -0.4105
  22860  H        168.7290   36.0190  283.6230 H     3287  MOL3287     0.2052
  22861  H        169.9060   35.5380  284.5910 H     3287  MOL3287     0.2052
  22862  O         27.6240   22.9860  291.0470 O.3   3288  MOL3288    -0.4105
  22863  H         27.0390   23.7630  291.1700 H     3288  MOL3288     0.2052
  22864  H         28.5650   23.3010  291.0500 H     3288  MOL3288     0.2052
  22865  O         33.2500   58.0750  115.5040 O.3   3289  MOL3289    -0.4105
  22866  H         33.9350   58.5910  115.9790 H     3289  MOL3289     0.2052
  22867  H         32.3980   58.1530  116.0060 H     3289  MOL3289     0.2052
  22868  O        121.3110  188.2690   10.4290 O.3   3290  MOL3290    -0.4105
  22869  H        120.7500  187.7790   11.0660 H     3290  MOL3290     0.2052
  22870  H        120.7220  188.8380    9.8690 H     3290  MOL3290     0.2052
  22871  O         78.9240  149.0000  215.7920 O.3   3291  MOL3291    -0.4105
  22872  H         78.8100  149.9730  215.8310 H     3291  MOL3291     0.2052
  22873  H         78.0910  148.6040  215.4260 H     3291  MOL3291     0.2052
  22874  O         36.1290   19.7590  216.0050 O.3   3292  MOL3292    -0.4105
  22875  H         36.9790   19.6690  215.5260 H     3292  MOL3292     0.2052
  22876  H         36.1130   19.0920  216.7400 H     3292  MOL3292     0.2052
  22877  O         14.1040  193.5240  267.7990 O.3   3293  MOL3293    -0.4105
  22878  H         14.5600  194.2580  268.2610 H     3293  MOL3293     0.2052
  22879  H         14.7570  193.0840  267.1950 H     3293  MOL3293     0.2052
  22880  O         78.9990   44.9060  156.6920 O.3   3294  MOL3294    -0.4105
  22881  H         79.6770   44.2460  156.4370 H     3294  MOL3294     0.2052
  22882  H         79.0450   45.0330  157.6750 H     3294  MOL3294     0.2052
  22883  O        164.2520  191.2700   11.5710 O.3   3295  MOL3295    -0.4105
  22884  H        163.7870  192.1180   11.4120 H     3295  MOL3295     0.2052
  22885  H        163.6020  190.6260   11.9540 H     3295  MOL3295     0.2052
  22886  O         49.1990   45.7550  184.0570 O.3   3296  MOL3296    -0.4105
  22887  H         49.8770   46.1630  183.4790 H     3296  MOL3296     0.2052
  22888  H         48.6780   45.1070  183.5160 H     3296  MOL3296     0.2052
  22889  O        131.5020    7.9860   44.6080 O.3   3297  MOL3297    -0.4105
  22890  H        131.0640    8.8330   44.3800 H     3297  MOL3297     0.2052
  22891  H        130.9340    7.5100   45.2680 H     3297  MOL3297     0.2052
  22892  O        147.5330  173.8530  132.4810 O.3   3298  MOL3298    -0.4105
  22893  H        147.9680  173.9000  133.3580 H     3298  MOL3298     0.2052
  22894  H        147.6730  174.7200  132.0190 H     3298  MOL3298     0.2052
  22895  O        180.8190    5.9910  191.2280 O.3   3299  MOL3299    -0.4105
  22896  H        181.0290    5.8110  190.2880 H     3299  MOL3299     0.2052
  22897  H        180.1330    5.3380  191.5240 H     3299  MOL3299     0.2052
  22898  O         13.0490   64.5140  138.5650 O.3   3300  MOL3300    -0.4105
  22899  H         12.0820   64.4010  138.4540 H     3300  MOL3300     0.2052
  22900  H         13.2450   65.4860  138.6030 H     3300  MOL3300     0.2052
  22901  O        193.3790  104.6070  129.7520 O.3   3301  MOL3301    -0.4105
  22902  H        192.5320  104.9920  129.4440 H     3301  MOL3301     0.2052
  22903  H        193.3630  104.5730  130.7430 H     3301  MOL3301     0.2052
  22904  O         92.3100  117.4380  165.5230 O.3   3302  MOL3302    -0.4105
  22905  H         91.4130  117.6660  165.8460 H     3302  MOL3302     0.2052
  22906  H         92.2140  116.8670  164.7180 H     3302  MOL3302     0.2052
  22907  O        182.1790  161.1730   94.2930 O.3   3303  MOL3303    -0.4105
  22908  H        181.2730  161.0020   93.9640 H     3303  MOL3303     0.2052
  22909  H        182.3550  162.1480   94.2270 H     3303  MOL3303     0.2052
  22910  O         74.5450   94.7320   38.8710 O.3   3304  MOL3304    -0.4105
  22911  H         75.0360   93.8840   38.8820 H     3304  MOL3304     0.2052
  22912  H         73.7810   94.6560   39.4990 H     3304  MOL3304     0.2052
  22913  O         80.8500   63.3580  293.4970 O.3   3305  MOL3305    -0.4105
  22914  H         80.5260   62.5870  294.0090 H     3305  MOL3305     0.2052
  22915  H         81.8030   63.5070  293.7320 H     3305  MOL3305     0.2052
  22916  O         37.2930   31.4760  227.1090 O.3   3306  MOL3306    -0.4105
  22917  H         36.5550   32.0200  226.7620 H     3306  MOL3306     0.2052
  22918  H         37.5330   31.8160  228.0100 H     3306  MOL3306     0.2052
  22919  O         66.8750   33.3310   20.3260 O.3   3307  MOL3307    -0.4105
  22920  H         65.9450   33.6390   20.3090 H     3307  MOL3307     0.2052
  22921  H         67.2100   33.4060   21.2570 H     3307  MOL3307     0.2052
  22922  O         54.8590   59.1420  250.6220 O.3   3308  MOL3308    -0.4105
  22923  H         55.3730   59.8190  250.1340 H     3308  MOL3308     0.2052
  22924  H         55.3810   58.8730  251.4220 H     3308  MOL3308     0.2052
  22925  O         75.4520  126.8200   15.9770 O.3   3309  MOL3309    -0.4105
  22926  H         75.7270  127.5830   15.4270 H     3309  MOL3309     0.2052
  22927  H         74.4750  126.8850   16.1330 H     3309  MOL3309     0.2052
  22928  O        193.4510  124.7790  287.4050 O.3   3310  MOL3310    -0.4105
  22929  H        193.1770  123.8940  287.0870 H     3310  MOL3310     0.2052
  22930  H        192.6400  125.3450  287.4860 H     3310  MOL3310     0.2052
  22931  O        198.8160   55.8850  186.1990 O.3   3311  MOL3311    -0.4105
  22932  H        198.3400   56.5040  185.6060 H     3311  MOL3311     0.2052
  22933  H        199.1230   55.1120  185.6570 H     3311  MOL3311     0.2052
  22934  O        115.5720  137.5360  185.1480 O.3   3312  MOL3312    -0.4105
  22935  H        115.3730  136.6680  185.5560 H     3312  MOL3312     0.2052
  22936  H        115.2810  138.2480  185.7750 H     3312  MOL3312     0.2052
  22937  O         21.7510  131.4940  208.9120 O.3   3313  MOL3313    -0.4105
  22938  H         21.8050  130.7680  209.5680 H     3313  MOL3313     0.2052
  22939  H         21.5790  132.3410  209.4000 H     3313  MOL3313     0.2052
  22940  O         84.3370  189.2500   23.2740 O.3   3314  MOL3314    -0.4105
  22941  H         83.6700  189.3680   22.5670 H     3314  MOL3314     0.2052
  22942  H         83.8860  189.3710   24.1500 H     3314  MOL3314     0.2052
  22943  O        114.0710  131.9760  187.2490 O.3   3315  MOL3315    -0.4105
  22944  H        113.7340  132.5660  187.9550 H     3315  MOL3315     0.2052
  22945  H        114.1740  132.5110  186.4200 H     3315  MOL3315     0.2052
  22946  O         82.9430  159.2940   44.3090 O.3   3316  MOL3316    -0.4105
  22947  H         83.6990  159.7080   43.8430 H     3316  MOL3316     0.2052
  22948  H         82.9050  158.3370   44.0500 H     3316  MOL3316     0.2052
  22949  O         20.7480   61.9060  296.6680 O.3   3317  MOL3317    -0.4105
  22950  H         19.9950   61.5300  297.1700 H     3317  MOL3317     0.2052
  22951  H         21.4690   61.2250  296.6330 H     3317  MOL3317     0.2052
  22952  O         99.5380  172.3340   77.4440 O.3   3318  MOL3318    -0.4105
  22953  H         98.6600  171.9190   77.5790 H     3318  MOL3318     0.2052
  22954  H         99.7720  172.8400   78.2640 H     3318  MOL3318     0.2052
  22955  O         74.6670  120.3190  166.8060 O.3   3319  MOL3319    -0.4105
  22956  H         75.4960  120.8210  166.6610 H     3319  MOL3319     0.2052
  22957  H         74.9050  119.3740  166.9940 H     3319  MOL3319     0.2052
  22958  O         30.6970   16.5800  121.0640 O.3   3320  MOL3320    -0.4105
  22959  H         31.3980   16.9740  121.6240 H     3320  MOL3320     0.2052
  22960  H         30.9980   15.6780  120.7790 H     3320  MOL3320     0.2052
  22961  O        106.6820  124.4950  200.5660 O.3   3321  MOL3321    -0.4105
  22962  H        106.4890  123.6020  200.2110 H     3321  MOL3321     0.2052
  22963  H        106.0620  124.6690  201.3210 H     3321  MOL3321     0.2052
  22964  O        187.0970  128.9530    2.2440 O.3   3322  MOL3322    -0.4105
  22965  H        186.3680  128.3040    2.1580 H     3322  MOL3322     0.2052
  22966  H        186.7080  129.8650    2.1960 H     3322  MOL3322     0.2052
  22967  O         51.7000  170.4040   64.9270 O.3   3323  MOL3323    -0.4105
  22968  H         51.5220  169.4410   64.9170 H     3323  MOL3323     0.2052
  22969  H         50.8310  170.8800   64.9720 H     3323  MOL3323     0.2052
  22970  O        131.5490    7.9240  213.5980 O.3   3324  MOL3324    -0.4105
  22971  H        130.8410    7.6390  212.9820 H     3324  MOL3324     0.2052
  22972  H        131.5740    7.2860  214.3580 H     3324  MOL3324     0.2052
  22973  O         85.6920  182.4360  106.3860 O.3   3325  MOL3325    -0.4105
  22974  H         86.5180  182.8910  106.6550 H     3325  MOL3325     0.2052
  22975  H         85.0260  183.1260  106.1310 H     3325  MOL3325     0.2052
  22976  O         98.0100   81.3750  293.2610 O.3   3326  MOL3326    -0.4105
  22977  H         98.6220   80.6300  293.4390 H     3326  MOL3326     0.2052
  22978  H         98.5520   82.1840  293.0710 H     3326  MOL3326     0.2052
  22979  O        144.6590   12.6440  159.0890 O.3   3327  MOL3327    -0.4105
  22980  H        144.2650   12.4360  158.2160 H     3327  MOL3327     0.2052
  22981  H        144.8280   13.6210  159.1270 H     3327  MOL3327     0.2052
  22982  O        162.8940  131.8880  262.1950 O.3   3328  MOL3328    -0.4105
  22983  H        162.3840  131.5100  262.9420 H     3328  MOL3328     0.2052
  22984  H        162.3030  131.9150  261.3990 H     3328  MOL3328     0.2052
  22985  O        187.2180  127.0030  107.8290 O.3   3329  MOL3329    -0.4105
  22986  H        187.5280  127.9300  107.7640 H     3329  MOL3329     0.2052
  22987  H        187.9330  126.4650  108.2580 H     3329  MOL3329     0.2052
  22988  O          5.7380  115.4900  196.1820 O.3   3330  MOL3330    -0.4105
  22989  H          6.2250  114.9490  195.5270 H     3330  MOL3330     0.2052
  22990  H          5.1820  116.1480  195.6900 H     3330  MOL3330     0.2052
  22991  O        140.2720  184.1710  222.1910 O.3   3331  MOL3331    -0.4105
  22992  H        140.2600  183.3910  221.5980 H     3331  MOL3331     0.2052
  22993  H        141.1650  184.2210  222.6210 H     3331  MOL3331     0.2052
  22994  O        162.3080   98.2270   80.4880 O.3   3332  MOL3332    -0.4105
  22995  H        161.4160   98.1020   80.1020 H     3332  MOL3332     0.2052
  22996  H        162.2860   99.0310   81.0680 H     3332  MOL3332     0.2052
  22997  O        145.8680  196.8940  107.0080 O.3   3333  MOL3333    -0.4105
  22998  H        145.7970  197.8430  107.2430 H     3333  MOL3333     0.2052
  22999  H        145.0900  196.4180  107.3990 H     3333  MOL3333     0.2052
  23000  O         97.1500  171.9410   27.8160 O.3   3334  MOL3334    -0.4105
  23001  H         96.6780  172.0390   28.6700 H     3334  MOL3334     0.2052
  23002  H         97.3560  172.8480   27.4710 H     3334  MOL3334     0.2052
  23003  O        122.1220  163.7780  166.5800 O.3   3335  MOL3335    -0.4105
  23004  H        122.0430  164.6160  167.0830 H     3335  MOL3335     0.2052
  23005  H        121.3150  163.6790  166.0110 H     3335  MOL3335     0.2052
  23006  O        106.9870   70.7210   38.5520 O.3   3336  MOL3336    -0.4105
  23007  H        107.2990   71.6350   38.3840 H     3336  MOL3336     0.2052
  23008  H        106.0040   70.7470   38.6780 H     3336  MOL3336     0.2052
  23009  O        139.8680  134.5260  199.6530 O.3   3337  MOL3337    -0.4105
  23010  H        140.6800  135.0630  199.5360 H     3337  MOL3337     0.2052
  23011  H        140.1380  133.5810  199.7900 H     3337  MOL3337     0.2052
  23012  O         58.9750  173.6710   33.0950 O.3   3338  MOL3338    -0.4105
  23013  H         59.1760  174.6290   33.0570 H     3338  MOL3338     0.2052
  23014  H         59.8300  173.1780   33.2000 H     3338  MOL3338     0.2052
  23015  O        151.8160   50.0760  253.8490 O.3   3339  MOL3339    -0.4105
  23016  H        151.5500   50.9340  253.4580 H     3339  MOL3339     0.2052
  23017  H        152.8070   50.0330  253.8610 H     3339  MOL3339     0.2052
  23018  O         52.8360  158.9080  186.3870 O.3   3340  MOL3340    -0.4105
  23019  H         53.8030  159.0270  186.4930 H     3340  MOL3340     0.2052
  23020  H         52.6720  157.9960  186.0330 H     3340  MOL3340     0.2052
  23021  O        160.2240  175.4400   55.6540 O.3   3341  MOL3341    -0.4105
  23022  H        160.7030  176.2290   55.9840 H     3341  MOL3341     0.2052
  23023  H        160.0650  175.5580   54.6820 H     3341  MOL3341     0.2052
  23024  O         83.2870   43.8750  298.6310 O.3   3342  MOL3342    -0.4105
  23025  H         82.9230   44.7560  298.4030 H     3342  MOL3342     0.2052
  23026  H         84.2570   43.9800  298.8170 H     3342  MOL3342     0.2052
  23027  O        197.2870  103.9370   76.9270 O.3   3343  MOL3343    -0.4105
  23028  H        197.8450  103.1330   76.8770 H     3343  MOL3343     0.2052
  23029  H        197.4650  104.4890   76.1220 H     3343  MOL3343     0.2052
  23030  O         17.3820   85.8340  220.9330 O.3   3344  MOL3344    -0.4105
  23031  H         17.6260   84.8860  220.9070 H     3344  MOL3344     0.2052
  23032  H         18.2160   86.3710  220.9080 H     3344  MOL3344     0.2052
  23033  O         76.6090   54.3320    2.4010 O.3   3345  MOL3345    -0.4105
  23034  H         76.4820   54.2850    1.4300 H     3345  MOL3345     0.2052
  23035  H         76.5420   53.4120    2.7670 H     3345  MOL3345     0.2052
  23036  O        142.3550   99.6250   56.0710 O.3   3346  MOL3346    -0.4105
  23037  H        143.1790  100.1490   55.9860 H     3346  MOL3346     0.2052
  23038  H        142.3320   98.9610   55.3340 H     3346  MOL3346     0.2052
  23039  O         79.4350  184.4690  180.5200 O.3   3347  MOL3347    -0.4105
  23040  H         80.2110  184.7310  179.9810 H     3347  MOL3347     0.2052
  23041  H         79.0730  183.6230  180.1510 H     3347  MOL3347     0.2052
  23042  O         12.3410  118.5670  259.5070 O.3   3348  MOL3348    -0.4105
  23043  H         12.0630  118.5500  260.4470 H     3348  MOL3348     0.2052
  23044  H         11.8160  119.2680  259.0410 H     3348  MOL3348     0.2052
  23045  O        181.8070   26.2980  278.2890 O.3   3349  MOL3349    -0.4105
  23046  H        182.3250   25.5510  277.9230 H     3349  MOL3349     0.2052
  23047  H        182.0210   27.1110  277.7620 H     3349  MOL3349     0.2052
  23048  O         37.6600   34.4450  290.0120 O.3   3350  MOL3350    -0.4105
  23049  H         38.4760   33.9030  290.0410 H     3350  MOL3350     0.2052
  23050  H         37.9220   35.4010  290.0200 H     3350  MOL3350     0.2052
  23051  O        154.6150  117.0830  241.7340 O.3   3351  MOL3351    -0.4105
  23052  H        153.7250  116.7600  241.4810 H     3351  MOL3351     0.2052
  23053  H        154.5070  117.9300  242.2400 H     3351  MOL3351     0.2052
  23054  O         87.9040   47.5560   14.0730 O.3   3352  MOL3352    -0.4105
  23055  H         87.1790   47.8150   13.4660 H     3352  MOL3352     0.2052
  23056  H         88.7680   47.7470   13.6240 H     3352  MOL3352     0.2052
  23057  O         55.5450   25.3270  239.3130 O.3   3353  MOL3353    -0.4105
  23058  H         54.9990   25.0680  238.5410 H     3353  MOL3353     0.2052
  23059  H         54.9430   25.7020  240.0060 H     3353  MOL3353     0.2052
  23060  O         10.5510    0.5680   32.7090 O.3   3354  MOL3354    -0.4105
  23061  H         10.8120    1.5090   32.7900 H     3354  MOL3354     0.2052
  23062  H         11.3710    0.0120   32.7600 H     3354  MOL3354     0.2052
  23063  O        140.7010  177.5040  222.6350 O.3   3355  MOL3355    -0.4105
  23064  H        140.8790  177.3200  223.5810 H     3355  MOL3355     0.2052
  23065  H        139.7320  177.6900  222.5320 H     3355  MOL3355     0.2052
  23066  O          8.6480  181.8670  158.8670 O.3   3356  MOL3356    -0.4105
  23067  H          9.4760  181.4030  159.1120 H     3356  MOL3356     0.2052
  23068  H          7.9450  181.1850  158.7090 H     3356  MOL3356     0.2052
  23069  O        180.4530   66.0600  232.0120 O.3   3357  MOL3357    -0.4105
  23070  H        180.0480   65.5230  232.7250 H     3357  MOL3357     0.2052
  23071  H        180.1660   67.0020  232.1320 H     3357  MOL3357     0.2052
  23072  O        111.6890  112.4680  226.7070 O.3   3358  MOL3358    -0.4105
  23073  H        112.2140  112.8780  225.9880 H     3358  MOL3358     0.2052
  23074  H        112.0860  112.7390  227.5750 H     3358  MOL3358     0.2052
  23075  O         28.1090  119.7960  172.8050 O.3   3359  MOL3359    -0.4105
  23076  H         28.4810  120.7030  172.8080 H     3359  MOL3359     0.2052
  23077  H         28.8490  119.1570  172.9760 H     3359  MOL3359     0.2052
  23078  O        192.4430   56.8680   25.1180 O.3   3360  MOL3360    -0.4105
  23079  H        192.6980   55.9290   25.2350 H     3360  MOL3360     0.2052
  23080  H        192.1640   56.9990   24.1740 H     3360  MOL3360     0.2052
  23081  O         53.9760   67.9020  293.2210 O.3   3361  MOL3361    -0.4105
  23082  H         53.0420   67.6880  293.4280 H     3361  MOL3361     0.2052
  23083  H         54.0190   68.8470  292.9210 H     3361  MOL3361     0.2052
  23084  O         57.9340  117.9580  197.6360 O.3   3362  MOL3362    -0.4105
  23085  H         57.7290  118.2150  198.5590 H     3362  MOL3362     0.2052
  23086  H         58.8180  117.5060  197.6280 H     3362  MOL3362     0.2052
  23087  O        189.3980   69.7980  168.4190 O.3   3363  MOL3363    -0.4105
  23088  H        190.3760   69.8530  168.4580 H     3363  MOL3363     0.2052
  23089  H        189.0370   70.7210  168.3670 H     3363  MOL3363     0.2052
  23090  O         95.4060  158.8790   13.7920 O.3   3364  MOL3364    -0.4105
  23091  H         95.3470  159.2990   12.9080 H     3364  MOL3364     0.2052
  23092  H         96.0480  159.4010   14.3410 H     3364  MOL3364     0.2052
  23093  O        124.6950   15.8920    5.6370 O.3   3365  MOL3365    -0.4105
  23094  H        124.0930   16.0050    4.8720 H     3365  MOL3365     0.2052
  23095  H        124.1440   15.7020    6.4400 H     3365  MOL3365     0.2052
  23096  O         41.6690  156.8900   89.4040 O.3   3366  MOL3366    -0.4105
  23097  H         41.5910  155.9170   89.4940 H     3366  MOL3366     0.2052
  23098  H         40.9830  157.3110   89.9840 H     3366  MOL3366     0.2052
  23099  O        160.7780  142.7380  265.6270 O.3   3367  MOL3367    -0.4105
  23100  H        161.5600  143.2800  265.8620 H     3367  MOL3367     0.2052
  23101  H        161.0850  141.8130  265.4440 H     3367  MOL3367     0.2052
  23102  O        140.9020  150.1330  203.5150 O.3   3368  MOL3368    -0.4105
  23103  H        141.2710  150.3840  204.3880 H     3368  MOL3368     0.2052
  23104  H        141.6570  149.8980  202.9150 H     3368  MOL3368     0.2052
  23105  O         50.4020  172.5410   32.8310 O.3   3369  MOL3369    -0.4105
  23106  H         50.9960  172.6200   33.6070 H     3369  MOL3369     0.2052
  23107  H         49.8600  173.3690   32.7690 H     3369  MOL3369     0.2052
  23108  O        182.1670  103.4680  177.6750 O.3   3370  MOL3370    -0.4105
  23109  H        182.1690  102.5750  177.2720 H     3370  MOL3370     0.2052
  23110  H        183.0510  103.6200  178.0980 H     3370  MOL3370     0.2052
  23111  O         93.2170   11.3990  242.9330 O.3   3371  MOL3371    -0.4105
  23112  H         92.2780   11.3980  243.2130 H     3371  MOL3371     0.2052
  23113  H         93.5530   12.3320  242.9750 H     3371  MOL3371     0.2052
  23114  O         20.7830   56.7280  175.4750 O.3   3372  MOL3372    -0.4105
  23115  H         20.6720   56.9960  174.5380 H     3372  MOL3372     0.2052
  23116  H         21.3030   57.4340  175.9390 H     3372  MOL3372     0.2052
  23117  O        105.1180   19.1930  178.2590 O.3   3373  MOL3373    -0.4105
  23118  H        105.4300   19.8180  177.5720 H     3373  MOL3373     0.2052
  23119  H        105.3680   19.5580  179.1470 H     3373  MOL3373     0.2052
  23120  O        115.6870  158.0110  261.8820 O.3   3374  MOL3374    -0.4105
  23121  H        115.7060  157.3380  262.5940 H     3374  MOL3374     0.2052
  23122  H        116.0510  157.6000  261.0550 H     3374  MOL3374     0.2052
  23123  O         96.5440  195.5250  245.3610 O.3   3375  MOL3375    -0.4105
  23124  H         97.4220  195.2290  245.0410 H     3375  MOL3375     0.2052
  23125  H         96.4180  195.1820  246.2830 H     3375  MOL3375     0.2052
  23126  O         19.9090  190.0200  289.7990 O.3   3376  MOL3376    -0.4105
  23127  H         19.1950  190.4950  289.3250 H     3376  MOL3376     0.2052
  23128  H         20.2370  190.6030  290.5320 H     3376  MOL3376     0.2052
  23129  O         14.0460  183.1510  151.2510 O.3   3377  MOL3377    -0.4105
  23130  H         14.8830  182.9300  150.7920 H     3377  MOL3377     0.2052
  23131  H         13.5370  183.7840  150.6810 H     3377  MOL3377     0.2052
  23132  O        141.7940  160.6270  208.8500 O.3   3378  MOL3378    -0.4105
  23133  H        140.8900  161.0030  208.8730 H     3378  MOL3378     0.2052
  23134  H        142.4430  161.3770  208.8800 H     3378  MOL3378     0.2052
  23135  O        123.0810   50.9550    3.1870 O.3   3379  MOL3379    -0.4105
  23136  H        123.4500   50.1540    2.7570 H     3379  MOL3379     0.2052
  23137  H        123.7110   51.7060    3.0360 H     3379  MOL3379     0.2052
  23138  O         61.4280   54.6230   34.8410 O.3   3380  MOL3380    -0.4105
  23139  H         61.3010   54.8820   33.9040 H     3380  MOL3380     0.2052
  23140  H         61.5320   53.6370   34.8790 H     3380  MOL3380     0.2052
  23141  O         81.1560   82.4990  299.0730 O.3   3381  MOL3381    -0.4105
  23142  H         80.7370   83.1150  298.4360 H     3381  MOL3381     0.2052
  23143  H         81.0050   82.8500  299.9890 H     3381  MOL3381     0.2052
  23144  O         93.8020   39.1200   62.2650 O.3   3382  MOL3382    -0.4105
  23145  H         93.1020   39.3460   61.6170 H     3382  MOL3382     0.2052
  23146  H         93.7970   38.1370   62.3970 H     3382  MOL3382     0.2052
  23147  O         85.6560   45.2850   59.2000 O.3   3383  MOL3383    -0.4105
  23148  H         84.7780   44.8710   59.3330 H     3383  MOL3383     0.2052
  23149  H         85.5610   46.0020   58.5200 H     3383  MOL3383     0.2052
  23150  O        174.6910    9.4890  150.6630 O.3   3384  MOL3384    -0.4105
  23151  H        174.3960    9.4710  151.5970 H     3384  MOL3384     0.2052
  23152  H        174.4360   10.3650  150.2730 H     3384  MOL3384     0.2052
  23153  O          8.3360   85.4070  252.6580 O.3   3385  MOL3385    -0.4105
  23154  H          9.0560   84.7420  252.6580 H     3385  MOL3385     0.2052
  23155  H          8.7480   86.3100  252.6580 H     3385  MOL3385     0.2052
  23156  O        185.4110   94.6730  188.8090 O.3   3386  MOL3386    -0.4105
  23157  H        184.5040   94.3220  188.6910 H     3386  MOL3386     0.2052
  23158  H        185.9700   94.3500  188.0560 H     3386  MOL3386     0.2052
  23159  O        188.8670   92.2670   21.1590 O.3   3387  MOL3387    -0.4105
  23160  H        188.3250   91.5110   21.4670 H     3387  MOL3387     0.2052
  23161  H        189.5320   92.4800   21.8630 H     3387  MOL3387     0.2052
  23162  O         90.4440   85.1400  291.9280 O.3   3388  MOL3388    -0.4105
  23163  H         90.0080   85.1060  291.0510 H     3388  MOL3388     0.2052
  23164  H         91.1610   84.4540  291.9440 H     3388  MOL3388     0.2052
  23165  O         65.0060   53.8140  204.8660 O.3   3389  MOL3389    -0.4105
  23166  H         65.5480   53.5640  205.6430 H     3389  MOL3389     0.2052
  23167  H         64.7250   54.7590  204.9740 H     3389  MOL3389     0.2052
  23168  O         92.3560  121.8850   27.5710 O.3   3390  MOL3390    -0.4105
  23169  H         92.3030  122.5810   26.8830 H     3390  MOL3390     0.2052
  23170  H         92.8120  122.2680   28.3650 H     3390  MOL3390     0.2052
  23171  O         39.1600  172.2820   10.8220 O.3   3391  MOL3391    -0.4105
  23172  H         39.2270  172.7110    9.9430 H     3391  MOL3391     0.2052
  23173  H         39.3820  172.9560   11.5150 H     3391  MOL3391     0.2052
  23174  O         26.0470   30.9850  209.9350 O.3   3392  MOL3392    -0.4105
  23175  H         25.5960   30.7510  210.7730 H     3392  MOL3392     0.2052
  23176  H         26.4960   30.1720  209.5860 H     3392  MOL3392     0.2052
  23177  O        111.2760   75.5780  289.0410 O.3   3393  MOL3393    -0.4105
  23178  H        111.8170   75.2060  288.3140 H     3393  MOL3393     0.2052
  23179  H        110.5110   74.9670  289.2030 H     3393  MOL3393     0.2052
  23180  O         11.7990  108.0100   50.4900 O.3   3394  MOL3394    -0.4105
  23181  H         11.3210  108.6400   51.0690 H     3394  MOL3394     0.2052
  23182  H         12.1860  107.2960   51.0610 H     3394  MOL3394     0.2052
  23183  O        125.7960   84.2080  196.8380 O.3   3395  MOL3395    -0.4105
  23184  H        126.5520   83.7040  196.4710 H     3395  MOL3395     0.2052
  23185  H        126.0640   84.5710  197.7220 H     3395  MOL3395     0.2052
  23186  O        181.8760  148.5830  122.3340 O.3   3396  MOL3396    -0.4105
  23187  H        181.3620  148.6850  123.1630 H     3396  MOL3396     0.2052
  23188  H        181.5250  147.7930  121.8470 H     3396  MOL3396     0.2052
  23189  O        140.8210   39.6610  194.3530 O.3   3397  MOL3397    -0.4105
  23190  H        141.5640   40.2430  194.6160 H     3397  MOL3397     0.2052
  23191  H        140.8640   39.5280  193.3710 H     3397  MOL3397     0.2052
  23192  O        186.3740  146.9240   19.9160 O.3   3398  MOL3398    -0.4105
  23193  H        187.0300  147.1930   19.2390 H     3398  MOL3398     0.2052
  23194  H        185.4910  147.2950   19.6580 H     3398  MOL3398     0.2052
  23195  O         32.9850   87.1250   91.3190 O.3   3399  MOL3399    -0.4105
  23196  H         33.0230   86.9060   92.2730 H     3399  MOL3399     0.2052
  23197  H         32.0420   87.0510   91.0210 H     3399  MOL3399     0.2052
  23198  O         47.1640    7.9140  189.9980 O.3   3400  MOL3400    -0.4105
  23199  H         46.9750    7.9560  190.9580 H     3400  MOL3400     0.2052
  23200  H         46.5560    8.5450  189.5340 H     3400  MOL3400     0.2052
  23201  O         43.3900  122.3860  122.7030 O.3   3401  MOL3401    -0.4105
  23202  H         43.0120  122.6050  123.5810 H     3401  MOL3401     0.2052
  23203  H         44.1770  121.7970  122.8430 H     3401  MOL3401     0.2052
  23204  O        110.4190   29.1940  285.4810 O.3   3402  MOL3402    -0.4105
  23205  H        111.2980   28.8390  285.2320 H     3402  MOL3402     0.2052
  23206  H        109.9350   28.4950  285.9910 H     3402  MOL3402     0.2052
  23207  O         83.1440   71.3120   72.5760 O.3   3403  MOL3403    -0.4105
  23208  H         83.4220   72.0550   73.1520 H     3403  MOL3403     0.2052
  23209  H         83.8850   71.1120   71.9480 H     3403  MOL3403     0.2052
  23210  O         92.5110    9.5020  156.9690 O.3   3404  MOL3404    -0.4105
  23211  H         92.9150    8.7180  156.5410 H     3404  MOL3404     0.2052
  23212  H         91.7120    9.2020  157.4760 H     3404  MOL3404     0.2052
  23213  O         62.2550  180.7230  102.4890 O.3   3405  MOL3405    -0.4105
  23214  H         62.5640  179.8160  102.6970 H     3405  MOL3405     0.2052
  23215  H         63.0400  181.2640  102.2160 H     3405  MOL3405     0.2052
  23216  O         25.2010   31.4880  197.0400 O.3   3406  MOL3406    -0.4105
  23217  H         25.9110   31.2300  196.4160 H     3406  MOL3406     0.2052
  23218  H         25.4620   31.1890  197.9490 H     3406  MOL3406     0.2052
  23219  O        169.6000   56.8780    9.4440 O.3   3407  MOL3407    -0.4105
  23220  H        170.3830   57.4340    9.6420 H     3407  MOL3407     0.2052
  23221  H        169.5950   56.6850    8.4710 H     3407  MOL3407     0.2052
  23222  O         68.0420  138.8710  183.9340 O.3   3408  MOL3408    -0.4105
  23223  H         69.0060  138.7390  184.0510 H     3408  MOL3408     0.2052
  23224  H         67.8050  139.7670  184.2880 H     3408  MOL3408     0.2052
  23225  O        182.8010    9.9080  118.3910 O.3   3409  MOL3409    -0.4105
  23226  H        183.7320   10.0920  118.6320 H     3409  MOL3409     0.2052
  23227  H        182.4310    9.2640  119.0490 H     3409  MOL3409     0.2052
  23228  O        165.6890   58.1530  181.1570 O.3   3410  MOL3410    -0.4105
  23229  H        166.3610   58.8650  181.2050 H     3410  MOL3410     0.2052
  23230  H        164.7920   58.5750  181.1310 H     3410  MOL3410     0.2052
  23231  O         99.4700   60.4350   65.7050 O.3   3411  MOL3411    -0.4105
  23232  H         98.6430   60.9270   65.8910 H     3411  MOL3411     0.2052
  23233  H        100.2270   61.0750   65.7400 H     3411  MOL3411     0.2052
  23234  O        122.8220    0.6780  173.6530 O.3   3412  MOL3412    -0.4105
  23235  H        122.6610    0.8490  174.6050 H     3412  MOL3412     0.2052
  23236  H        123.7290    1.0110  173.4270 H     3412  MOL3412     0.2052
  23237  O        135.8750   59.2190   58.5820 O.3   3413  MOL3413    -0.4105
  23238  H        135.1780   59.2310   57.8930 H     3413  MOL3413     0.2052
  23239  H        136.4620   58.4370   58.4160 H     3413  MOL3413     0.2052
  23240  O         65.3440   58.8400   55.3870 O.3   3414  MOL3414    -0.4105
  23241  H         65.7570   59.5190   54.8140 H     3414  MOL3414     0.2052
  23242  H         66.0010   58.1090   55.5240 H     3414  MOL3414     0.2052
  23243  O          7.1610  130.2170  290.0730 O.3   3415  MOL3415    -0.4105
  23244  H          7.6670  130.4260  289.2600 H     3415  MOL3415     0.2052
  23245  H          6.6970  129.3510  289.9360 H     3415  MOL3415     0.2052
  23246  O        177.8180  167.8360   38.0000 O.3   3416  MOL3416    -0.4105
  23247  H        177.2490  167.5230   38.7340 H     3416  MOL3416     0.2052
  23248  H        178.5960  168.3120   38.3920 H     3416  MOL3416     0.2052
  23249  O         95.9980  120.0990  248.9220 O.3   3417  MOL3417    -0.4105
  23250  H         96.9460  120.2290  248.7060 H     3417  MOL3417     0.2052
  23251  H         95.9310  119.3790  249.6020 H     3417  MOL3417     0.2052
  23252  O        171.2570   58.9330  262.0380 O.3   3418  MOL3418    -0.4105
  23253  H        170.9690   58.0550  261.7120 H     3418  MOL3418     0.2052
  23254  H        171.5510   59.4730  261.2590 H     3418  MOL3418     0.2052
  23255  O         30.9310  156.3080   22.4440 O.3   3419  MOL3419    -0.4105
  23256  H         31.3940  155.9660   23.2370 H     3419  MOL3419     0.2052
  23257  H         30.1070  155.7720   22.3100 H     3419  MOL3419     0.2052
  23258  O        149.9720  143.0310   41.4340 O.3   3420  MOL3420    -0.4105
  23259  H        150.6600  142.4310   41.0780 H     3420  MOL3420     0.2052
  23260  H        149.1370  142.5080   41.5550 H     3420  MOL3420     0.2052
  23261  O        125.0600  156.3790   42.8300 O.3   3421  MOL3421    -0.4105
  23262  H        126.0220  156.5620   42.7830 H     3421  MOL3421     0.2052
  23263  H        124.6360  156.7350   42.0070 H     3421  MOL3421     0.2052
  23264  O        101.0870  181.0780  281.3440 O.3   3422  MOL3422    -0.4105
  23265  H        100.8650  180.2030  281.7260 H     3422  MOL3422     0.2052
  23266  H        101.9730  181.3550  281.6950 H     3422  MOL3422     0.2052
  23267  O        184.5240  195.1590  152.9150 O.3   3423  MOL3423    -0.4105
  23268  H        185.0730  195.2180  152.1050 H     3423  MOL3423     0.2052
  23269  H        183.6070  194.8880  152.6490 H     3423  MOL3423     0.2052
  23270  O         66.9710  121.5040   18.3310 O.3   3424  MOL3424    -0.4105
  23271  H         66.9590  120.5240   18.3180 H     3424  MOL3424     0.2052
  23272  H         66.0330  121.8260   18.3400 H     3424  MOL3424     0.2052
  23273  O         70.0030  111.8230   67.8240 O.3   3425  MOL3425    -0.4105
  23274  H         69.5240  112.0340   66.9960 H     3425  MOL3425     0.2052
  23275  H         70.1330  112.6670   68.3310 H     3425  MOL3425     0.2052
  23276  O         82.3040   55.0470  201.9600 O.3   3426  MOL3426    -0.4105
  23277  H         82.9140   54.9790  201.1960 H     3426  MOL3426     0.2052
  23278  H         82.7170   55.6470  202.6340 H     3426  MOL3426     0.2052
  23279  O         82.3850    1.0330  293.1870 O.3   3427  MOL3427    -0.4105
  23280  H         81.6430    0.4400  292.9460 H     3427  MOL3427     0.2052
  23281  H         82.6970    0.7870  294.0960 H     3427  MOL3427     0.2052
  23282  O         45.5250   34.1100  238.0360 O.3   3428  MOL3428    -0.4105
  23283  H         45.1810   33.2940  238.4570 H     3428  MOL3428     0.2052
  23284  H         44.8210   34.4710  237.4370 H     3428  MOL3428     0.2052
  23285  O        132.9980   86.5340   46.4220 O.3   3429  MOL3429    -0.4105
  23286  H        132.3030   87.2160   46.3140 H     3429  MOL3429     0.2052
  23287  H        132.6000   85.6490   46.2160 H     3429  MOL3429     0.2052
  23288  O          6.9530  117.1110   62.8580 O.3   3430  MOL3430    -0.4105
  23289  H          6.3200  116.6690   62.2540 H     3430  MOL3430     0.2052
  23290  H          7.0190  116.5710   63.6880 H     3430  MOL3430     0.2052
  23291  O         77.6990  166.6140  127.9690 O.3   3431  MOL3431    -0.4105
  23292  H         78.6630  166.6990  127.8140 H     3431  MOL3431     0.2052
  23293  H         77.4800  167.0730  128.8210 H     3431  MOL3431     0.2052
  23294  O        154.7210  143.0350  173.2300 O.3   3432  MOL3432    -0.4105
  23295  H        154.4020  142.1080  173.2290 H     3432  MOL3432     0.2052
  23296  H        153.9300  143.6350  173.2310 H     3432  MOL3432     0.2052
  23297  O        115.4620   63.3000  270.6040 O.3   3433  MOL3433    -0.4105
  23298  H        114.6190   62.8040  270.5430 H     3433  MOL3433     0.2052
  23299  H        115.4120   64.0750  269.9860 H     3433  MOL3433     0.2052
  23300  O          1.7720   67.2650  279.7300 O.3   3434  MOL3434    -0.4105
  23301  H          0.9690   67.7260  279.4100 H     3434  MOL3434     0.2052
  23302  H          1.7160   67.1940  280.7180 H     3434  MOL3434     0.2052
  23303  O         21.7540   58.9890   39.1710 O.3   3435  MOL3435    -0.4105
  23304  H         22.6050   58.5060   39.2270 H     3435  MOL3435     0.2052
  23305  H         21.9500   59.9480   39.0140 H     3435  MOL3435     0.2052
  23306  O        168.6280   99.4250  207.4350 O.3   3436  MOL3436    -0.4105
  23307  H        167.9130   98.9140  207.0010 H     3436  MOL3436     0.2052
  23308  H        169.4010   99.4670  206.8140 H     3436  MOL3436     0.2052
  23309  O         92.0010   93.4100    7.3930 O.3   3437  MOL3437    -0.4105
  23310  H         91.6200   94.0160    8.0630 H     3437  MOL3437     0.2052
  23311  H         92.0410   92.4990    7.7850 H     3437  MOL3437     0.2052
  23312  O        115.2590  176.3590   28.8650 O.3   3438  MOL3438    -0.4105
  23313  H        114.7930  177.2150   28.7630 H     3438  MOL3438     0.2052
  23314  H        116.1690  176.5400   29.2160 H     3438  MOL3438     0.2052
  23315  O        184.9810  105.2810  175.4950 O.3   3439  MOL3439    -0.4105
  23316  H        185.3740  106.1040  175.8530 H     3439  MOL3439     0.2052
  23317  H        184.1150  105.5100  175.0690 H     3439  MOL3439     0.2052
  23318  O        130.8250   23.7280  281.2190 O.3   3440  MOL3440    -0.4105
  23319  H        129.9550   23.5760  280.7940 H     3440  MOL3440     0.2052
  23320  H        131.3400   24.3610  280.6550 H     3440  MOL3440     0.2052
  23321  O          8.9970  192.4930  137.0680 O.3   3441  MOL3441    -0.4105
  23322  H          9.2210  193.2240  137.6800 H     3441  MOL3441     0.2052
  23323  H          8.1130  192.1260  137.3330 H     3441  MOL3441     0.2052
  23324  O         16.3830  177.5830  277.4480 O.3   3442  MOL3442    -0.4105
  23325  H         16.7330  178.4750  277.2440 H     3442  MOL3442     0.2052
  23326  H         15.4390  177.6780  277.7380 H     3442  MOL3442     0.2052
  23327  O         63.7840   52.4270  176.5210 O.3   3443  MOL3443    -0.4105
  23328  H         63.1470   53.1660  176.4290 H     3443  MOL3443     0.2052
  23329  H         64.0450   52.3590  177.4760 H     3443  MOL3443     0.2052
  23330  O         63.3030   51.8240  162.9520 O.3   3444  MOL3444    -0.4105
  23331  H         63.9160   51.7100  163.7080 H     3444  MOL3444     0.2052
  23332  H         63.4460   51.0730  162.3200 H     3444  MOL3444     0.2052
  23333  O        198.8620   83.8420  133.0550 O.3   3445  MOL3445    -0.4105
  23334  H        199.7340   83.3970  133.0180 H     3445  MOL3445     0.2052
  23335  H        199.0150   84.8190  133.1440 H     3445  MOL3445     0.2052
  23336  O        131.5560   79.2200   42.9710 O.3   3446  MOL3446    -0.4105
  23337  H        131.8160   79.3500   43.9060 H     3446  MOL3446     0.2052
  23338  H        132.2570   79.6220   42.3950 H     3446  MOL3446     0.2052
  23339  O        100.1920  119.5190   38.0650 O.3   3447  MOL3447    -0.4105
  23340  H         99.8530  118.6490   37.7690 H     3447  MOL3447     0.2052
  23341  H        101.1240  119.6160   37.7370 H     3447  MOL3447     0.2052
  23342  O         91.7030   57.4990  221.4940 O.3   3448  MOL3448    -0.4105
  23343  H         91.3690   57.2670  222.3860 H     3448  MOL3448     0.2052
  23344  H         91.5280   58.4630  221.3380 H     3448  MOL3448     0.2052
  23345  O        166.3220  125.1920   39.7840 O.3   3449  MOL3449    -0.4105
  23346  H        166.3260  126.1720   39.7920 H     3449  MOL3449     0.2052
  23347  H        166.6930  124.8720   40.6470 H     3449  MOL3449     0.2052
  23348  O         98.1280  161.5880  272.0550 O.3   3450  MOL3450    -0.4105
  23349  H         98.9900  162.0550  272.0400 H     3450  MOL3450     0.2052
  23350  H         98.3040  160.6120  272.0880 H     3450  MOL3450     0.2052
  23351  O        113.0110    5.9060  235.3640 O.3   3451  MOL3451    -0.4105
  23352  H        113.8700    5.4960  235.1310 H     3451  MOL3451     0.2052
  23353  H        113.1850    6.6610  235.9840 H     3451  MOL3451     0.2052
  23354  O        129.3010   50.4160  224.3190 O.3   3452  MOL3452    -0.4105
  23355  H        128.4670   50.2140  224.7920 H     3452  MOL3452     0.2052
  23356  H        129.6810   49.5630  223.9830 H     3452  MOL3452     0.2052
  23357  O          7.5770   44.9660   67.3260 O.3   3453  MOL3453    -0.4105
  23358  H          6.8600   45.6330   67.2850 H     3453  MOL3453     0.2052
  23359  H          7.5490   44.5350   68.2190 H     3453  MOL3453     0.2052
  23360  O         78.3040  122.9070  254.2540 O.3   3454  MOL3454    -0.4105
  23361  H         77.5960  122.3080  253.9370 H     3454  MOL3454     0.2052
  23362  H         77.8880  123.7660  254.5230 H     3454  MOL3454     0.2052
  23363  O        112.4870    8.3040  270.8130 O.3   3455  MOL3455    -0.4105
  23364  H        111.5640    8.5810  270.9910 H     3455  MOL3455     0.2052
  23365  H        113.0580    9.1160  270.8030 H     3455  MOL3455     0.2052
  23366  O         11.4400   62.6030   49.5440 O.3   3456  MOL3456    -0.4105
  23367  H         10.5010   62.5520   49.2680 H     3456  MOL3456     0.2052
  23368  H         11.7590   61.6830   49.7330 H     3456  MOL3456     0.2052
  23369  O         31.7010  156.9620  137.3030 O.3   3457  MOL3457    -0.4105
  23370  H         31.1010  157.1540  136.5530 H     3457  MOL3457     0.2052
  23371  H         32.1500  157.8070  137.5660 H     3457  MOL3457     0.2052
  23372  O        112.7830   87.5180  181.3070 O.3   3458  MOL3458    -0.4105
  23373  H        113.2760   88.0380  181.9760 H     3458  MOL3458     0.2052
  23374  H        112.7920   88.0240  180.4530 H     3458  MOL3458     0.2052
  23375  O        178.0380  132.3620   53.6130 O.3   3459  MOL3459    -0.4105
  23376  H        178.1730  132.0260   54.5240 H     3459  MOL3459     0.2052
  23377  H        177.3060  133.0320   53.6360 H     3459  MOL3459     0.2052
  23378  O         82.4320   80.6760   19.5970 O.3   3460  MOL3460    -0.4105
  23379  H         83.2380   81.1500   19.3030 H     3460  MOL3460     0.2052
  23380  H         81.6710   81.3130   19.5720 H     3460  MOL3460     0.2052
  23381  O         26.0710   16.9720  111.4490 O.3   3461  MOL3461    -0.4105
  23382  H         27.0000   16.6600  111.4600 H     3461  MOL3461     0.2052
  23383  H         26.0780   17.9620  111.3770 H     3461  MOL3461     0.2052
  23384  O         52.7330   86.8410  202.1160 O.3   3462  MOL3462    -0.4105
  23385  H         52.7830   85.8620  202.0990 H     3462  MOL3462     0.2052
  23386  H         53.6580   87.1990  202.1170 H     3462  MOL3462     0.2052
  23387  O         52.6400  161.9290  281.9100 O.3   3463  MOL3463    -0.4105
  23388  H         52.0450  162.4560  282.4830 H     3463  MOL3463     0.2052
  23389  H         52.1790  161.0810  281.6800 H     3463  MOL3463     0.2052
  23390  O        128.2530  174.1320   60.0780 O.3   3464  MOL3464    -0.4105
  23391  H        128.8470  174.8650   60.3450 H     3464  MOL3464     0.2052
  23392  H        128.1160  173.5420   60.8640 H     3464  MOL3464     0.2052
  23393  O          3.6800  158.7340  214.5770 O.3   3465  MOL3465    -0.4105
  23394  H          2.7800  159.1110  214.4810 H     3465  MOL3465     0.2052
  23395  H          3.5990  157.7470  214.6310 H     3465  MOL3465     0.2052
  23396  O        169.6310    0.0010   83.2990 O.3   3466  MOL3466    -0.4105
  23397  H        168.9550    0.5670   83.7270 H     3466  MOL3466     0.2052
  23398  H        169.8030    0.3570   82.3890 H     3466  MOL3466     0.2052
  23399  O         16.2030   23.5020  218.0190 O.3   3467  MOL3467    -0.4105
  23400  H         16.4740   22.7870  217.4060 H     3467  MOL3467     0.2052
  23401  H         15.2300   23.6590  217.9010 H     3467  MOL3467     0.2052
  23402  O          3.0080   43.5280    9.5900 O.3   3468  MOL3468    -0.4105
  23403  H          3.3870   42.6410    9.7680 H     3468  MOL3468     0.2052
  23404  H          2.5310   43.8310   10.4050 H     3468  MOL3468     0.2052
  23405  O        174.2670  117.4790  137.0770 O.3   3469  MOL3469    -0.4105
  23406  H        174.6840  116.5960  137.1520 H     3469  MOL3469     0.2052
  23407  H        173.2870  117.3700  137.1880 H     3469  MOL3469     0.2052
  23408  O        163.5030  168.7140  106.4490 O.3   3470  MOL3470    -0.4105
  23409  H        164.3810  168.6850  106.8830 H     3470  MOL3470     0.2052
  23410  H        163.5880  168.3070  105.5480 H     3470  MOL3470     0.2052
  23411  O         83.7620    0.5990  197.7740 O.3   3471  MOL3471    -0.4105
  23412  H         83.0130    0.0030  197.5650 H     3471  MOL3471     0.2052
  23413  H         83.4050    1.3880  198.2590 H     3471  MOL3471     0.2052
  23414  O          5.1700  175.3180  264.4660 O.3   3472  MOL3472    -0.4105
  23415  H          4.8990  176.2410  264.6550 H     3472  MOL3472     0.2052
  23416  H          4.8100  175.0640  263.5770 H     3472  MOL3472     0.2052
  23417  O        196.3250  132.3240  146.8090 O.3   3473  MOL3473    -0.4105
  23418  H        195.5590  132.5310  146.2340 H     3473  MOL3473     0.2052
  23419  H        196.6530  133.1720  147.2070 H     3473  MOL3473     0.2052
  23420  O         10.6140  167.9890  287.5460 O.3   3474  MOL3474    -0.4105
  23421  H         10.4700  168.7690  288.1220 H     3474  MOL3474     0.2052
  23422  H         10.5390  167.1720  288.1040 H     3474  MOL3474     0.2052
  23423  O         23.7740  152.1430    2.8440 O.3   3475  MOL3475    -0.4105
  23424  H         24.4020  152.5700    2.2240 H     3475  MOL3475     0.2052
  23425  H         23.8350  151.1600    2.7190 H     3475  MOL3475     0.2052
  23426  O        193.8830  119.3810  138.4170 O.3   3476  MOL3476    -0.4105
  23427  H        192.9150  119.4630  138.2860 H     3476  MOL3476     0.2052
  23428  H        194.1100  118.4160  138.4610 H     3476  MOL3476     0.2052
  23429  O         11.1280  131.4350  193.1990 O.3   3477  MOL3477    -0.4105
  23430  H         11.8770  130.9520  193.6070 H     3477  MOL3477     0.2052
  23431  H         11.1480  132.3720  193.5250 H     3477  MOL3477     0.2052
  23432  O        194.3990   60.2620  146.4270 O.3   3478  MOL3478    -0.4105
  23433  H        195.3340   60.0410  146.6240 H     3478  MOL3478     0.2052
  23434  H        194.0650   59.6200  145.7480 H     3478  MOL3478     0.2052
  23435  O         73.8030  117.3490  205.0870 O.3   3479  MOL3479    -0.4105
  23436  H         74.5140  117.6940  204.5070 H     3479  MOL3479     0.2052
  23437  H         73.5930  116.4220  204.8020 H     3479  MOL3479     0.2052
  23438  O        187.6560   63.6150  197.7790 O.3   3480  MOL3480    -0.4105
  23439  H        187.0290   63.0100  198.2260 H     3480  MOL3480     0.2052
  23440  H        188.5720   63.2510  197.8910 H     3480  MOL3480     0.2052
  23441  O        172.1310   11.4600   62.7890 O.3   3481  MOL3481    -0.4105
  23442  H        172.1000   12.4390   62.7510 H     3481  MOL3481     0.2052
  23443  H        171.2030   11.1160   62.7090 H     3481  MOL3481     0.2052
  23444  O         11.7420  193.9910  130.4780 O.3   3482  MOL3482    -0.4105
  23445  H         10.8150  194.2830  130.6050 H     3482  MOL3482     0.2052
  23446  H         12.2500  194.7400  130.0720 H     3482  MOL3482     0.2052
  23447  O         71.3790  172.1430  194.8080 O.3   3483  MOL3483    -0.4105
  23448  H         70.7820  172.8830  195.0430 H     3483  MOL3483     0.2052
  23449  H         71.2400  171.4110  195.4630 H     3483  MOL3483     0.2052
  23450  O        120.5630  186.2180    7.1030 O.3   3484  MOL3484    -0.4105
  23451  H        121.3780  186.6160    6.7310 H     3484  MOL3484     0.2052
  23452  H        119.7860  186.7410    6.7780 H     3484  MOL3484     0.2052
  23453  O        103.7950   26.0470  208.2840 O.3   3485  MOL3485    -0.4105
  23454  H        102.9290   25.6490  208.5120 H     3485  MOL3485     0.2052
  23455  H        103.6700   27.0250  208.1780 H     3485  MOL3485     0.2052
  23456  O         19.9620   79.8360  267.4160 O.3   3486  MOL3486    -0.4105
  23457  H         19.0450   79.4900  267.4160 H     3486  MOL3486     0.2052
  23458  H         19.9200   80.8280  267.4170 H     3486  MOL3486     0.2052
  23459  O         76.9180   10.1900  278.5100 O.3   3487  MOL3487    -0.4105
  23460  H         76.3870   10.8190  277.9780 H     3487  MOL3487     0.2052
  23461  H         77.5400   10.7130  279.0800 H     3487  MOL3487     0.2052
  23462  O        169.5900   81.5890  197.1100 O.3   3488  MOL3488    -0.4105
  23463  H        169.3470   82.3500  196.5420 H     3488  MOL3488     0.2052
  23464  H        170.4770   81.7750  197.5150 H     3488  MOL3488     0.2052
  23465  O         71.9080   88.2130  240.5220 O.3   3489  MOL3489    -0.4105
  23466  H         71.4970   88.0690  239.6440 H     3489  MOL3489     0.2052
  23467  H         72.1780   87.3310  240.8870 H     3489  MOL3489     0.2052
  23468  O         31.4850   13.6710  100.0880 O.3   3490  MOL3490    -0.4105
  23469  H         30.5110   13.7220  100.1870 H     3490  MOL3490     0.2052
  23470  H         31.6990   13.6570   99.1190 H     3490  MOL3490     0.2052
  23471  O         75.7710   76.1240  209.2430 O.3   3491  MOL3491    -0.4105
  23472  H         76.4060   75.4430  209.5470 H     3491  MOL3491     0.2052
  23473  H         75.5270   76.6900  210.0210 H     3491  MOL3491     0.2052
  23474  O        176.1280  159.5820  117.9080 O.3   3492  MOL3492    -0.4105
  23475  H        176.7200  158.8020  117.9340 H     3492  MOL3492     0.2052
  23476  H        175.9830  159.8300  116.9580 H     3492  MOL3492     0.2052
  23477  O        140.3160   80.2230  243.4390 O.3   3493  MOL3493    -0.4105
  23478  H        139.3970   80.1760  243.1040 H     3493  MOL3493     0.2052
  23479  H        140.7400   79.3350  243.3070 H     3493  MOL3493     0.2052
  23480  O         93.2670  150.7630   16.6570 O.3   3494  MOL3494    -0.4105
  23481  H         93.4660  149.9850   16.0940 H     3494  MOL3494     0.2052
  23482  H         92.7160  150.4580   17.4240 H     3494  MOL3494     0.2052
  23483  O        146.7780  195.8760   29.6000 O.3   3495  MOL3495    -0.4105
  23484  H        145.9680  195.5740   30.0630 H     3495  MOL3495     0.2052
  23485  H        147.2810  195.0750   29.3020 H     3495  MOL3495     0.2052
  23486  O         55.2210   40.6910  175.0710 O.3   3496  MOL3496    -0.4105
  23487  H         55.8170   39.9150  175.1360 H     3496  MOL3496     0.2052
  23488  H         54.4960   40.4730  174.4290 H     3496  MOL3496     0.2052
  23489  O        113.4470  146.1270   61.0000 O.3   3497  MOL3497    -0.4105
  23490  H        112.4950  146.3590   61.0270 H     3497  MOL3497     0.2052
  23491  H        113.6460  145.5390   61.7750 H     3497  MOL3497     0.2052
  23492  O        190.2770   68.4990  239.4030 O.3   3498  MOL3498    -0.4105
  23493  H        189.6690   69.2540  239.2560 H     3498  MOL3498     0.2052
  23494  H        189.7570   67.7580  239.8090 H     3498  MOL3498     0.2052
  23495  O        153.5330  186.2500  171.3440 O.3   3499  MOL3499    -0.4105
  23496  H        154.3940  186.5570  171.6960 H     3499  MOL3499     0.2052
  23497  H        152.8790  186.9920  171.4300 H     3499  MOL3499     0.2052
  23498  O         73.8290  188.4620  213.5770 O.3   3500  MOL3500    -0.4105
  23499  H         73.0150  188.2130  213.0930 H     3500  MOL3500     0.2052
  23500  H         73.7800  188.0720  214.4880 H     3500  MOL3500     0.2052
  23501  O        106.7220  177.2380   53.5400 O.3   3501  MOL3501    -0.4105
  23502  H        107.2200  177.9560   53.9840 H     3501  MOL3501     0.2052
  23503  H        107.3760  176.6090   53.1380 H     3501  MOL3501     0.2052
  23504  O         32.7740  188.0560  254.8260 O.3   3502  MOL3502    -0.4105
  23505  H         33.2020  187.1890  254.6620 H     3502  MOL3502     0.2052
  23506  H         31.7920  187.9380  254.7430 H     3502  MOL3502     0.2052
  23507  O         19.1250  177.5130  122.6910 O.3   3503  MOL3503    -0.4105
  23508  H         19.1160  178.4730  122.8920 H     3503  MOL3503     0.2052
  23509  H         20.0590  177.1880  122.7710 H     3503  MOL3503     0.2052
  23510  O          9.8250  107.0080  299.2520 O.3   3504  MOL3504    -0.4105
  23511  H          9.1910  106.3230  298.9520 H     3504  MOL3504     0.2052
  23512  H         10.6150  106.5500  299.6420 H     3504  MOL3504     0.2052
  23513  O        193.7090   38.1240  275.3630 O.3   3505  MOL3505    -0.4105
  23514  H        192.9070   38.6370  275.5960 H     3505  MOL3505     0.2052
  23515  H        193.4420   37.1780  275.2240 H     3505  MOL3505     0.2052
  23516  O         96.8840   30.4580   36.3670 O.3   3506  MOL3506    -0.4105
  23517  H         96.3460   29.9780   37.0310 H     3506  MOL3506     0.2052
  23518  H         96.4930   30.2900   35.4710 H     3506  MOL3506     0.2052
  23519  O         79.7170   38.3130  191.4290 O.3   3507  MOL3507    -0.4105
  23520  H         80.2420   39.1070  191.6650 H     3507  MOL3507     0.2052
  23521  H         78.7630   38.5790  191.3660 H     3507  MOL3507     0.2052
  23522  O         38.5120   39.7070  182.3360 O.3   3508  MOL3508    -0.4105
  23523  H         39.4310   39.4680  182.0940 H     3508  MOL3508     0.2052
  23524  H         38.5230   40.6080  182.7500 H     3508  MOL3508     0.2052
  23525  O        153.4620   55.9960   84.5440 O.3   3509  MOL3509    -0.4105
  23526  H        152.5320   56.3010   84.6020 H     3509  MOL3509     0.2052
  23527  H        153.4570   55.0250   84.3400 H     3509  MOL3509     0.2052
  23528  O        192.4540   60.0920  253.0150 O.3   3510  MOL3510    -0.4105
  23529  H        192.5130   60.9680  253.4500 H     3510  MOL3510     0.2052
  23530  H        193.3750   59.7860  252.8060 H     3510  MOL3510     0.2052
  23531  O         29.3530   57.1540   10.0170 O.3   3511  MOL3511    -0.4105
  23532  H         29.6090   58.0930   10.1350 H     3511  MOL3511     0.2052
  23533  H         28.3830   57.0710   10.2090 H     3511  MOL3511     0.2052
  23534  O         74.7790   13.9910  196.5490 O.3   3512  MOL3512    -0.4105
  23535  H         74.7700   14.9410  196.3090 H     3512  MOL3512     0.2052
  23536  H         75.0830   13.9120  197.4900 H     3512  MOL3512     0.2052
  23537  O         90.1700  143.2220   64.0590 O.3   3513  MOL3513    -0.4105
  23538  H         89.2400  143.3940   64.3170 H     3513  MOL3513     0.2052
  23539  H         90.2150  142.3250   63.6390 H     3513  MOL3513     0.2052
  23540  O         15.1810   33.1090  130.6510 O.3   3514  MOL3514    -0.4105
  23541  H         15.9800   33.1050  131.2190 H     3514  MOL3514     0.2052
  23542  H         15.4650   32.9410  129.7150 H     3514  MOL3514     0.2052
  23543  O        171.5510   39.7300  150.1810 O.3   3515  MOL3515    -0.4105
  23544  H        171.2710   38.7910  150.1690 H     3515  MOL3515     0.2052
  23545  H        172.5420   39.7590  150.1830 H     3515  MOL3515     0.2052
  23546  O         66.3510  136.8990  179.3200 O.3   3516  MOL3516    -0.4105
  23547  H         65.6720  136.8830  180.0270 H     3516  MOL3516     0.2052
  23548  H         67.2450  136.9310  179.7490 H     3516  MOL3516     0.2052
  23549  O          4.2010   98.6660  218.8460 O.3   3517  MOL3517    -0.4105
  23550  H          3.8550   99.4650  218.3960 H     3517  MOL3517     0.2052
  23551  H          4.7700   98.9580  219.6050 H     3517  MOL3517     0.2052
  23552  O        189.7660   94.3410  155.8790 O.3   3518  MOL3518    -0.4105
  23553  H        189.1930   95.0570  156.2250 H     3518  MOL3518     0.2052
  23554  H        189.1850   93.6440  155.4790 H     3518  MOL3518     0.2052
  23555  O        158.3300  167.7100   98.8930 O.3   3519  MOL3519    -0.4105
  23556  H        158.2430  167.5880   97.9240 H     3519  MOL3519     0.2052
  23557  H        157.4240  167.6650   99.2940 H     3519  MOL3519     0.2052
  23558  O         26.1270   39.1560   78.9490 O.3   3520  MOL3520    -0.4105
  23559  H         25.2720   39.2290   79.4230 H     3520  MOL3520     0.2052
  23560  H         26.7190   38.5520   79.4670 H     3520  MOL3520     0.2052
  23561  O        149.3460   67.0780  270.7090 O.3   3521  MOL3521    -0.4105
  23562  H        148.3770   66.9820  270.5980 H     3521  MOL3521     0.2052
  23563  H        149.6800   66.2910  271.2130 H     3521  MOL3521     0.2052
  23564  O         69.1690   21.7630  283.0540 O.3   3522  MOL3522    -0.4105
  23565  H         69.4230   21.4270  282.1690 H     3522  MOL3522     0.2052
  23566  H         69.0090   22.7400  282.9820 H     3522  MOL3522     0.2052
  23567  O        128.8770  171.1250   33.4880 O.3   3523  MOL3523    -0.4105
  23568  H        129.4990  170.9320   32.7560 H     3523  MOL3523     0.2052
  23569  H        129.0860  170.5140   34.2420 H     3523  MOL3523     0.2052
  23570  O        104.1260   38.0030  174.5140 O.3   3524  MOL3524    -0.4105
  23571  H        104.5300   38.7760  174.9630 H     3524  MOL3524     0.2052
  23572  H        104.2660   38.1040  173.5370 H     3524  MOL3524     0.2052
  23573  O        104.1000   84.2970  289.1020 O.3   3525  MOL3525    -0.4105
  23574  H        104.7730   83.6040  288.9390 H     3525  MOL3525     0.2052
  23575  H        103.2120   83.9330  288.8500 H     3525  MOL3525     0.2052
  23576  O          8.5910  133.9800   25.6030 O.3   3526  MOL3526    -0.4105
  23577  H          9.2760  133.2860   25.6950 H     3526  MOL3526     0.2052
  23578  H          7.8440  133.7630   26.2200 H     3526  MOL3526     0.2052
  23579  O         28.1470  155.3160  287.0750 O.3   3527  MOL3527    -0.4105
  23580  H         28.1540  156.2860  287.2120 H     3527  MOL3527     0.2052
  23581  H         27.2170  155.0390  286.8640 H     3527  MOL3527     0.2052
  23582  O         74.7560    2.3950   53.7090 O.3   3528  MOL3528    -0.4105
  23583  H         74.1590    3.1720   53.7080 H     3528  MOL3528     0.2052
  23584  H         74.1990    1.5750   53.6740 H     3528  MOL3528     0.2052
  23585  O         11.7680  161.3400  136.7430 O.3   3529  MOL3529    -0.4105
  23586  H         11.0770  160.7210  136.4280 H     3529  MOL3529     0.2052
  23587  H         12.0460  161.0580  137.6530 H     3529  MOL3529     0.2052
  23588  O        157.6040   25.0820  198.8210 O.3   3530  MOL3530    -0.4105
  23589  H        158.4940   24.9960  199.2240 H     3530  MOL3530     0.2052
  23590  H        157.1390   25.8430  199.2560 H     3530  MOL3530     0.2052
  23591  O         39.5820   18.0010  288.1080 O.3   3531  MOL3531    -0.4105
  23592  H         38.8930   18.5960  288.4710 H     3531  MOL3531     0.2052
  23593  H         40.1250   18.5170  287.4560 H     3531  MOL3531     0.2052
  23594  O         40.1210  169.6920   94.2660 O.3   3532  MOL3532    -0.4105
  23595  H         39.6440  168.8420   94.3720 H     3532  MOL3532     0.2052
  23596  H         39.4500  170.4100   94.1290 H     3532  MOL3532     0.2052
  23597  O          1.4480  177.4380  190.1260 O.3   3533  MOL3533    -0.4105
  23598  H          2.1250  178.1190  190.3240 H     3533  MOL3533     0.2052
  23599  H          1.0630  177.1240  190.9850 H     3533  MOL3533     0.2052
  23600  O         73.0390   72.5270   66.3460 O.3   3534  MOL3534    -0.4105
  23601  H         73.4150   72.4210   67.2440 H     3534  MOL3534     0.2052
  23602  H         73.5410   71.9370   65.7270 H     3534  MOL3534     0.2052
  23603  O        119.3860  167.3240  154.2190 O.3   3535  MOL3535    -0.4105
  23604  H        119.3500  168.3030  154.2040 H     3535  MOL3535     0.2052
  23605  H        118.4580  166.9780  154.1640 H     3535  MOL3535     0.2052
  23606  O          2.7590  153.3240  194.7190 O.3   3536  MOL3536    -0.4105
  23607  H          2.3630  154.2020  194.5370 H     3536  MOL3536     0.2052
  23608  H          2.1560  152.6290  194.3470 H     3536  MOL3536     0.2052
  23609  O        122.6170  100.3970   36.8420 O.3   3537  MOL3537    -0.4105
  23610  H        122.6230   99.7560   37.5840 H     3537  MOL3537     0.2052
  23611  H        122.0360  100.0340   36.1240 H     3537  MOL3537     0.2052
  23612  O        113.6620  172.2780  212.2870 O.3   3538  MOL3538    -0.4105
  23613  H        113.5380  171.7680  213.1150 H     3538  MOL3538     0.2052
  23614  H        113.8220  171.6350  211.5480 H     3538  MOL3538     0.2052
  23615  O        173.5270  194.8790   21.8140 O.3   3539  MOL3539    -0.4105
  23616  H        172.6060  194.6030   21.6220 H     3539  MOL3539     0.2052
  23617  H        173.5840  195.8640   21.7080 H     3539  MOL3539     0.2052
  23618  O        190.2760   59.7000  145.1260 O.3   3540  MOL3540    -0.4105
  23619  H        190.5880   58.9120  145.6190 H     3540  MOL3540     0.2052
  23620  H        189.2860   59.6640  145.0790 H     3540  MOL3540     0.2052
  23621  O        161.9130   24.2480    0.9890 O.3   3541  MOL3541    -0.4105
  23622  H        161.4880   23.6530    0.3360 H     3541  MOL3541     0.2052
  23623  H        162.8460   23.9390    1.1300 H     3541  MOL3541     0.2052
  23624  O         58.3480   20.8390   70.2090 O.3   3542  MOL3542    -0.4105
  23625  H         58.7470   20.3960   70.9870 H     3542  MOL3542     0.2052
  23626  H         57.7450   21.5570   70.5360 H     3542  MOL3542     0.2052
  23627  O        130.6880  196.8890  167.3970 O.3   3543  MOL3543    -0.4105
  23628  H        130.4210  196.0040  167.7230 H     3543  MOL3543     0.2052
  23629  H        130.8460  197.4740  168.1820 H     3543  MOL3543     0.2052
  23630  O         45.3280   72.3500   61.7220 O.3   3544  MOL3544    -0.4105
  23631  H         46.2150   72.2350   61.3220 H     3544  MOL3544     0.2052
  23632  H         45.1760   71.6060   62.3600 H     3544  MOL3544     0.2052
  23633  O         19.1640  127.6910  178.0130 O.3   3545  MOL3545    -0.4105
  23634  H         18.3520  127.5580  177.4790 H     3545  MOL3545     0.2052
  23635  H         19.0370  127.2410  178.8880 H     3545  MOL3545     0.2052
  23636  O         27.8500   23.9130  148.2040 O.3   3546  MOL3546    -0.4105
  23637  H         28.7290   24.3240  148.3400 H     3546  MOL3546     0.2052
  23638  H         27.9860   22.9540  147.9900 H     3546  MOL3546     0.2052
  23639  O         41.4140   95.5340  157.9580 O.3   3547  MOL3547    -0.4105
  23640  H         40.8260   96.3120  158.0500 H     3547  MOL3547     0.2052
  23641  H         40.8990   94.7240  158.2100 H     3547  MOL3547     0.2052
  23642  O        101.4100  147.9970  224.7780 O.3   3548  MOL3548    -0.4105
  23643  H        101.1150  147.0720  224.9150 H     3548  MOL3548     0.2052
  23644  H        101.7220  148.3560  225.6490 H     3548  MOL3548     0.2052
  23645  O        195.1800   85.9100  285.5600 O.3   3549  MOL3549    -0.4105
  23646  H        196.0020   86.0810  286.0650 H     3549  MOL3549     0.2052
  23647  H        195.1960   86.4720  284.7420 H     3549  MOL3549     0.2052
  23648  O          6.7270  103.4980   25.6420 O.3   3550  MOL3550    -0.4105
  23649  H          7.5760  103.7230   25.2060 H     3550  MOL3550     0.2052
  23650  H          6.9300  103.0050   26.4790 H     3550  MOL3550     0.2052
  23651  O        146.9170  115.6310  196.9500 O.3   3551  MOL3551    -0.4105
  23652  H        147.6950  115.0590  196.7790 H     3551  MOL3551     0.2052
  23653  H        146.1040  115.0620  196.9360 H     3551  MOL3551     0.2052
  23654  O        111.0390   54.3850   26.8330 O.3   3552  MOL3552    -0.4105
  23655  H        111.2760   55.2390   27.2530 H     3552  MOL3552     0.2052
  23656  H        110.1550   54.1020   27.1820 H     3552  MOL3552     0.2052
  23657  O         77.1860  117.0660  252.3160 O.3   3553  MOL3553    -0.4105
  23658  H         76.8430  116.1770  252.5450 H     3553  MOL3553     0.2052
  23659  H         76.4160  117.6890  252.2580 H     3553  MOL3553     0.2052
  23660  O        162.6830   61.4170  209.5510 O.3   3554  MOL3554    -0.4105
  23661  H        163.3890   60.7380  209.5660 H     3554  MOL3554     0.2052
  23662  H        162.2490   61.4350  210.4430 H     3554  MOL3554     0.2052
  23663  O        108.7120   30.3650  209.3290 O.3   3555  MOL3555    -0.4105
  23664  H        109.4350   31.0260  209.3490 H     3555  MOL3555     0.2052
  23665  H        107.8750   30.8270  209.0630 H     3555  MOL3555     0.2052
  23666  O         90.5660  191.9810  161.4550 O.3   3556  MOL3556    -0.4105
  23667  H         90.2920  192.8750  161.1610 H     3556  MOL3556     0.2052
  23668  H         89.9970  191.7200  162.2250 H     3556  MOL3556     0.2052
  23669  O         51.8960   92.4100  295.2390 O.3   3557  MOL3557    -0.4105
  23670  H         51.7590   92.8970  294.3990 H     3557  MOL3557     0.2052
  23671  H         52.5810   92.8940  295.7690 H     3557  MOL3557     0.2052
  23672  O         54.6230  103.7710  266.2690 O.3   3558  MOL3558    -0.4105
  23673  H         54.9930  104.6770  266.3160 H     3558  MOL3558     0.2052
  23674  H         55.3780  103.1290  266.2200 H     3558  MOL3558     0.2052
  23675  O        154.7640  195.0730  123.3090 O.3   3559  MOL3559    -0.4105
  23676  H        153.9590  194.6420  123.6650 H     3559  MOL3559     0.2052
  23677  H        155.2170  195.5480  124.0540 H     3559  MOL3559     0.2052
  23678  O        192.3300  122.4990   63.5520 O.3   3560  MOL3560    -0.4105
  23679  H        192.8150  123.2950   63.2490 H     3560  MOL3560     0.2052
  23680  H        191.3610  122.7130   63.5630 H     3560  MOL3560     0.2052
  23681  O         17.0750  111.2730   23.4370 O.3   3561  MOL3561    -0.4105
  23682  H         18.0290  111.0490   23.4340 H     3561  MOL3561     0.2052
  23683  H         16.9190  111.9710   22.7490 H     3561  MOL3561     0.2052
  23684  O        125.0210   84.4660  221.1560 O.3   3562  MOL3562    -0.4105
  23685  H        124.2330   85.0340  221.2800 H     3562  MOL3562     0.2052
  23686  H        125.0450   83.8020  221.8940 H     3562  MOL3562     0.2052
  23687  O        165.5530  118.3310  204.3960 O.3   3563  MOL3563    -0.4105
  23688  H        165.1300  118.9870  204.9880 H     3563  MOL3563     0.2052
  23689  H        166.0540  118.8230  203.6950 H     3563  MOL3563     0.2052
  23690  O         64.1080  185.8920    0.5690 O.3   3564  MOL3564    -0.4105
  23691  H         64.2570  185.4350    1.4240 H     3564  MOL3564     0.2052
  23692  H         64.9210  186.4180    0.3530 H     3564  MOL3564     0.2052
  23693  O         22.6600   66.5230   54.1070 O.3   3565  MOL3565    -0.4105
  23694  H         22.1900   66.0930   54.8530 H     3565  MOL3565     0.2052
  23695  H         23.2150   65.8370   53.6540 H     3565  MOL3565     0.2052
  23696  O        190.4890   51.9660  237.9490 O.3   3566  MOL3566    -0.4105
  23697  H        191.1460   51.7400  238.6400 H     3566  MOL3566     0.2052
  23698  H        189.6800   51.4110  238.0980 H     3566  MOL3566     0.2052
  23699  O         38.6040   68.8790  255.1590 O.3   3567  MOL3567    -0.4105
  23700  H         39.3170   68.9560  255.8270 H     3567  MOL3567     0.2052
  23701  H         38.2970   67.9360  255.1410 H     3567  MOL3567     0.2052
  23702  O         64.3810  142.3650  253.3520 O.3   3568  MOL3568    -0.4105
  23703  H         63.8970  141.8660  254.0430 H     3568  MOL3568     0.2052
  23704  H         63.7180  142.7270  252.7080 H     3568  MOL3568     0.2052
  23705  O         52.8780   37.0660   47.0270 O.3   3569  MOL3569    -0.4105
  23706  H         53.2310   37.0760   47.9410 H     3569  MOL3569     0.2052
  23707  H         53.3620   36.3690   46.5140 H     3569  MOL3569     0.2052
  23708  O        131.1780  110.6920    8.6340 O.3   3570  MOL3570    -0.4105
  23709  H        130.6720  111.5260    8.5380 H     3570  MOL3570     0.2052
  23710  H        132.0190  110.8930    9.1210 H     3570  MOL3570     0.2052
  23711  O        195.0030  155.0350   62.6380 O.3   3571  MOL3571    -0.4105
  23712  H        195.9800  155.0070   62.5620 H     3571  MOL3571     0.2052
  23713  H        194.6720  155.8000   62.1010 H     3571  MOL3571     0.2052
  23714  O         28.6080   86.2240   99.2630 O.3   3572  MOL3572    -0.4105
  23715  H         28.2920   87.1460   99.3670 H     3572  MOL3572     0.2052
  23716  H         27.8460   85.6130   99.4420 H     3572  MOL3572     0.2052
  23717  O        105.0800    0.5900   27.5970 O.3   3573  MOL3573    -0.4105
  23718  H        104.6100    0.0040   26.9670 H     3573  MOL3573     0.2052
  23719  H        105.9500    0.8440   27.1940 H     3573  MOL3573     0.2052
  23720  O        198.1480   34.7450  144.8630 O.3   3574  MOL3574    -0.4105
  23721  H        198.7160   33.9460  144.8680 H     3574  MOL3574     0.2052
  23722  H        197.2010   34.4530  144.9120 H     3574  MOL3574     0.2052
  23723  O         47.8920  176.1380   13.1530 O.3   3575  MOL3575    -0.4105
  23724  H         47.3470  176.9500   13.0850 H     3575  MOL3575     0.2052
  23725  H         48.6590  176.2260   12.5290 H     3575  MOL3575     0.2052
  23726  O        177.6750  119.7450  213.3040 O.3   3576  MOL3576    -0.4105
  23727  H        178.3660  120.2760  213.7530 H     3576  MOL3576     0.2052
  23728  H        177.4040  119.0100  213.9130 H     3576  MOL3576     0.2052
  23729  O         91.7320   26.8460  236.7360 O.3   3577  MOL3577    -0.4105
  23730  H         91.6580   27.8050  236.9220 H     3577  MOL3577     0.2052
  23731  H         92.6940   26.6210  236.6420 H     3577  MOL3577     0.2052
  23732  O          4.4990  159.3210  262.1850 O.3   3578  MOL3578    -0.4105
  23733  H          3.6920  159.8590  262.0430 H     3578  MOL3578     0.2052
  23734  H          4.2320  158.4710  262.6220 H     3578  MOL3578     0.2052
  23735  O        123.6870    0.8470   70.2440 O.3   3579  MOL3579    -0.4105
  23736  H        124.1700    0.0100   70.0800 H     3579  MOL3579     0.2052
  23737  H        122.8470    0.6310   70.7270 H     3579  MOL3579     0.2052
  23738  O         30.5490   42.0400   29.6300 O.3   3580  MOL3580    -0.4105
  23739  H         29.8260   42.1400   30.2840 H     3580  MOL3580     0.2052
  23740  H         31.1430   41.3060   29.9350 H     3580  MOL3580     0.2052
  23741  O        138.3970  198.8930   46.1520 O.3   3581  MOL3581    -0.4105
  23742  H        138.1220  199.8330   46.1920 H     3581  MOL3581     0.2052
  23743  H        137.6250  198.3320   46.4280 H     3581  MOL3581     0.2052
  23744  O        113.0680   30.5810  298.3790 O.3   3582  MOL3582    -0.4105
  23745  H        114.0340   30.4890  298.5100 H     3582  MOL3582     0.2052
  23746  H        112.8680   30.4210  297.4210 H     3582  MOL3582     0.2052
  23747  O        103.5860  156.6110   88.1200 O.3   3583  MOL3583    -0.4105
  23748  H        103.4860  156.8160   89.0730 H     3583  MOL3583     0.2052
  23749  H        104.3960  156.0480   88.0070 H     3583  MOL3583     0.2052
  23750  O        193.4720  127.3310   81.2800 O.3   3584  MOL3584    -0.4105
  23751  H        194.0690  127.9570   81.7400 H     3584  MOL3584     0.2052
  23752  H        192.6800  127.1760   81.8570 H     3584  MOL3584     0.2052
  23753  O        170.9290  180.6360   69.8300 O.3   3585  MOL3585    -0.4105
  23754  H        170.1880  180.6690   70.4700 H     3585  MOL3585     0.2052
  23755  H        170.5560  180.7510   68.9170 H     3585  MOL3585     0.2052
  23756  O        115.0180  109.0930   21.3680 O.3   3586  MOL3586    -0.4105
  23757  H        115.6040  109.1260   20.5830 H     3586  MOL3586     0.2052
  23758  H        115.4120  108.4620   22.0240 H     3586  MOL3586     0.2052
  23759  O         64.7510   48.4160  182.6340 O.3   3587  MOL3587    -0.4105
  23760  H         65.7300   48.4740  182.6470 H     3587  MOL3587     0.2052
  23761  H         64.4980   47.4570  182.6150 H     3587  MOL3587     0.2052
  23762  O        182.4080    7.4250  292.9910 O.3   3588  MOL3588    -0.4105
  23763  H        181.5840    7.6770  293.4570 H     3588  MOL3588     0.2052
  23764  H        182.3250    6.4780  292.7040 H     3588  MOL3588     0.2052
  23765  O          1.7940  177.0090   62.9160 O.3   3589  MOL3589    -0.4105
  23766  H          2.6910  176.9910   63.3120 H     3589  MOL3589     0.2052
  23767  H          1.7410  176.2860   62.2370 H     3589  MOL3589     0.2052
  23768  O        185.7460   42.2760  100.5970 O.3   3590  MOL3590    -0.4105
  23769  H        185.3470   43.1430  100.3770 H     3590  MOL3590     0.2052
  23770  H        186.3690   42.0260   99.8670 H     3590  MOL3590     0.2052
  23771  O        194.7390  152.0020  105.7850 O.3   3591  MOL3591    -0.4105
  23772  H        195.5430  151.4420  105.7980 H     3591  MOL3591     0.2052
  23773  H        194.7510  152.5420  104.9530 H     3591  MOL3591     0.2052
  23774  O        122.3380  169.3180  217.9540 O.3   3592  MOL3592    -0.4105
  23775  H        121.6700  169.3460  218.6700 H     3592  MOL3592     0.2052
  23776  H        122.8530  168.4740  218.0430 H     3592  MOL3592     0.2052
  23777  O         95.1870   13.6680   76.8350 O.3   3593  MOL3593    -0.4105
  23778  H         94.4920   14.3500   76.7300 H     3593  MOL3593     0.2052
  23779  H         95.0580   13.2260   77.7140 H     3593  MOL3593     0.2052
  23780  O        125.0240  158.6660  170.2730 O.3   3594  MOL3594    -0.4105
  23781  H        124.8530  157.8840  170.8380 H     3594  MOL3594     0.2052
  23782  H        124.1500  159.0470  169.9990 H     3594  MOL3594     0.2052
  23783  O        129.0850  193.2370  266.2450 O.3   3595  MOL3595    -0.4105
  23784  H        130.0140  193.5210  266.1210 H     3595  MOL3595     0.2052
  23785  H        128.7520  193.6250  267.0960 H     3595  MOL3595     0.2052
  23786  O        187.6800  134.2060  192.3520 O.3   3596  MOL3596    -0.4105
  23787  H        187.2240  133.3620  192.1540 H     3596  MOL3596     0.2052
  23788  H        187.0460  134.9490  192.1790 H     3596  MOL3596     0.2052
  23789  O        198.5180  142.4700  152.2990 O.3   3597  MOL3597    -0.4105
  23790  H        197.6580  142.9390  152.2980 H     3597  MOL3597     0.2052
  23791  H        199.1270  142.9370  151.6690 H     3597  MOL3597     0.2052
  23792  O         20.1490  182.2360  255.9130 O.3   3598  MOL3598    -0.4105
  23793  H         20.6870  182.9930  256.2250 H     3598  MOL3598     0.2052
  23794  H         20.2180  182.1940  254.9240 H     3598  MOL3598     0.2052
  23795  O        195.2230  148.9400   48.9420 O.3   3599  MOL3599    -0.4105
  23796  H        195.8830  148.6390   49.6000 H     3599  MOL3599     0.2052
  23797  H        195.6740  149.5590   48.3110 H     3599  MOL3599     0.2052
  23798  O        181.2800    3.7220   93.6730 O.3   3600  MOL3600    -0.4105
  23799  H        180.8070    4.4380   94.1460 H     3600  MOL3600     0.2052
  23800  H        182.2080    4.0260   93.4980 H     3600  MOL3600     0.2052
  23801  O        119.5470  127.6670  298.5110 O.3   3601  MOL3601    -0.4105
  23802  H        119.0460  128.5050  298.4220 H     3601  MOL3601     0.2052
  23803  H        119.0060  127.0380  299.0550 H     3601  MOL3601     0.2052
  23804  O         87.5480  116.2240  177.7570 O.3   3602  MOL3602    -0.4105
  23805  H         87.5370  116.6500  176.8740 H     3602  MOL3602     0.2052
  23806  H         88.1810  115.4600  177.7250 H     3602  MOL3602     0.2052
  23807  O        162.7890  130.0120  223.3460 O.3   3603  MOL3603    -0.4105
  23808  H        161.8190  129.8720  223.3600 H     3603  MOL3603     0.2052
  23809  H        163.2310  129.1240  223.3180 H     3603  MOL3603     0.2052
  23810  O        122.8310  186.5260   65.0060 O.3   3604  MOL3604    -0.4105
  23811  H        122.7230  187.5000   65.0180 H     3604  MOL3604     0.2052
  23812  H        123.7630  186.3200   64.7320 H     3604  MOL3604     0.2052
  23813  O         38.6520  136.8120   65.6530 O.3   3605  MOL3605    -0.4105
  23814  H         38.8330  137.7610   65.4940 H     3605  MOL3605     0.2052
  23815  H         39.1210  136.2850   64.9550 H     3605  MOL3605     0.2052
  23816  O        167.7020   95.2480   96.9900 O.3   3606  MOL3606    -0.4105
  23817  H        167.4540   96.0580   97.4820 H     3606  MOL3606     0.2052
  23818  H        168.4460   94.8060   97.4750 H     3606  MOL3606     0.2052
  23819  O         18.0670   99.4350  181.0660 O.3   3607  MOL3607    -0.4105
  23820  H         17.3160   99.7530  181.6100 H     3607  MOL3607     0.2052
  23821  H         18.8940   99.5020  181.6100 H     3607  MOL3607     0.2052
  23822  O        149.8190   26.2380  160.4170 O.3   3608  MOL3608    -0.4105
  23823  H        148.9030   25.9350  160.2500 H     3608  MOL3608     0.2052
  23824  H        150.0090   27.0010  159.8120 H     3608  MOL3608     0.2052
  23825  O        185.2040   27.0750  126.0640 O.3   3609  MOL3609    -0.4105
  23826  H        185.9710   27.6770  126.1590 H     3609  MOL3609     0.2052
  23827  H        184.3760   27.5980  126.2270 H     3609  MOL3609     0.2052
  23828  O         47.8370  156.9170   44.1210 O.3   3610  MOL3610    -0.4105
  23829  H         47.3240  157.7520   44.1320 H     3610  MOL3610     0.2052
  23830  H         47.1960  156.1600   44.1250 H     3610  MOL3610     0.2052
  23831  O        108.1370    3.0210  114.0320 O.3   3611  MOL3611    -0.4105
  23832  H        108.7740    2.2760  114.0580 H     3611  MOL3611     0.2052
  23833  H        107.2300    2.6590  114.2080 H     3611  MOL3611     0.2052
  23834  O        140.4290  184.2990  234.0320 O.3   3612  MOL3612    -0.4105
  23835  H        139.9520  183.6550  234.5960 H     3612  MOL3612     0.2052
  23836  H        140.2020  184.1110  233.0850 H     3612  MOL3612     0.2052
  23837  O         22.1850  156.0840   81.7370 O.3   3613  MOL3613    -0.4105
  23838  H         23.1630  156.1030   81.7950 H     3613  MOL3613     0.2052
  23839  H         21.8220  156.7270   82.4010 H     3613  MOL3613     0.2052
  23840  O        143.7220  156.0930   18.9950 O.3   3614  MOL3614    -0.4105
  23841  H        143.2750  155.8540   18.1560 H     3614  MOL3614     0.2052
  23842  H        143.8370  155.2660   19.5320 H     3614  MOL3614     0.2052
  23843  O        172.6970  116.1400  124.4720 O.3   3615  MOL3615    -0.4105
  23844  H        172.5780  115.2220  124.7940 H     3615  MOL3615     0.2052
  23845  H        171.8000  116.5550  124.3820 H     3615  MOL3615     0.2052
  23846  O        122.4090  146.3890   61.0450 O.3   3616  MOL3616    -0.4105
  23847  H        122.4390  147.3270   61.3260 H     3616  MOL3616     0.2052
  23848  H        122.5340  145.8200   61.8490 H     3616  MOL3616     0.2052
  23849  O        173.9420   56.4810  164.6750 O.3   3617  MOL3617    -0.4105
  23850  H        174.8080   56.4440  165.1330 H     3617  MOL3617     0.2052
  23851  H        173.7910   57.4140  164.3730 H     3617  MOL3617     0.2052
  23852  O         76.0280  196.7850   81.9230 O.3   3618  MOL3618    -0.4105
  23853  H         75.7230  197.0950   81.0450 H     3618  MOL3618     0.2052
  23854  H         75.2530  196.7930   82.5420 H     3618  MOL3618     0.2052
  23855  O        162.9910  197.6110  131.5280 O.3   3619  MOL3619    -0.4105
  23856  H        162.5060  198.4630  131.5550 H     3619  MOL3619     0.2052
  23857  H        162.3260  196.8750  131.5120 H     3619  MOL3619     0.2052
  23858  O        172.5120  126.0580  149.7710 O.3   3620  MOL3620    -0.4105
  23859  H        171.5560  125.9880  149.9710 H     3620  MOL3620     0.2052
  23860  H        173.0110  125.5320  150.4490 H     3620  MOL3620     0.2052
  23861  O        198.5650   98.5350   75.9660 O.3   3621  MOL3621    -0.4105
  23862  H        198.1130   99.3980   75.8590 H     3621  MOL3621     0.2052
  23863  H        199.5440   98.6900   75.9180 H     3621  MOL3621     0.2052
  23864  O          7.2120   66.0220  203.7830 O.3   3622  MOL3622    -0.4105
  23865  H          7.5630   66.9320  203.6800 H     3622  MOL3622     0.2052
  23866  H          6.4350   66.0570  204.3990 H     3622  MOL3622     0.2052
  23867  O        152.5270   66.3080   39.3860 O.3   3623  MOL3623    -0.4105
  23868  H        152.0100   66.9600   39.9040 H     3623  MOL3623     0.2052
  23869  H        153.4360   66.6770   39.2420 H     3623  MOL3623     0.2052
  23870  O         92.8920   20.0950   51.0730 O.3   3624  MOL3624    -0.4105
  23871  H         93.2530   20.8980   50.6440 H     3624  MOL3624     0.2052
  23872  H         91.9100   20.0800   50.9300 H     3624  MOL3624     0.2052
  23873  O        137.5550  134.7990  282.6360 O.3   3625  MOL3625    -0.4105
  23874  H        137.2170  135.6490  282.2840 H     3625  MOL3625     0.2052
  23875  H        136.9210  134.4740  283.3270 H     3625  MOL3625     0.2052
  23876  O        104.0390   85.0250  229.3180 O.3   3626  MOL3626    -0.4105
  23877  H        104.4600   85.1930  228.4480 H     3626  MOL3626     0.2052
  23878  H        103.3080   85.6850  229.4410 H     3626  MOL3626     0.2052
  23879  O         16.6100   47.9410   70.7530 O.3   3627  MOL3627    -0.4105
  23880  H         16.5760   48.3340   69.8560 H     3627  MOL3627     0.2052
  23881  H         15.6940   47.6500   71.0000 H     3627  MOL3627     0.2052
  23882  O        103.7290    8.1950   51.0480 O.3   3628  MOL3628    -0.4105
  23883  H        104.2210    7.4860   50.5840 H     3628  MOL3628     0.2052
  23884  H        104.3770    8.8970   51.3190 H     3628  MOL3628     0.2052
  23885  O         70.4820  186.2680    2.4570 O.3   3629  MOL3629    -0.4105
  23886  H         69.8460  185.7630    3.0060 H     3629  MOL3629     0.2052
  23887  H         71.2940  186.4390    3.0010 H     3629  MOL3629     0.2052
  23888  O        102.7530  143.7080   59.4770 O.3   3630  MOL3630    -0.4105
  23889  H        102.6800  144.4480   60.1160 H     3630  MOL3630     0.2052
  23890  H        101.8900  143.6290   58.9940 H     3630  MOL3630     0.2052
  23891  O         75.6270  131.7640    7.3120 O.3   3631  MOL3631    -0.4105
  23892  H         75.0370  132.4820    7.6220 H     3631  MOL3631     0.2052
  23893  H         75.1750  131.2900    6.5670 H     3631  MOL3631     0.2052
  23894  O         32.3690  177.9670  257.8420 O.3   3632  MOL3632    -0.4105
  23895  H         32.8780  177.1370  257.7300 H     3632  MOL3632     0.2052
  23896  H         31.4100  177.7320  257.9410 H     3632  MOL3632     0.2052
  23897  O         14.4900   40.4200    0.5790 O.3   3633  MOL3633    -0.4105
  23898  H         14.0450   39.9270    1.2990 H     3633  MOL3633     0.2052
  23899  H         13.7920   40.8270    0.0030 H     3633  MOL3633     0.2052
  23900  O        171.9740   95.2350  294.1150 O.3   3634  MOL3634    -0.4105
  23901  H        171.7130   96.1790  294.1410 H     3634  MOL3634     0.2052
  23902  H        172.9650   95.1860  294.1090 H     3634  MOL3634     0.2052
  23903  O        109.9720  153.2450   72.2850 O.3   3635  MOL3635    -0.4105
  23904  H        110.0500  153.6220   73.1870 H     3635  MOL3635     0.2052
  23905  H        110.6400  152.5170   72.1940 H     3635  MOL3635     0.2052
  23906  O         62.5130  133.3710  238.4230 O.3   3636  MOL3636    -0.4105
  23907  H         63.3930  133.8010  238.4730 H     3636  MOL3636     0.2052
  23908  H         61.9430  133.9000  237.8070 H     3636  MOL3636     0.2052
  23909  O         19.9380   61.4360   62.7760 O.3   3637  MOL3637    -0.4105
  23910  H         18.9630   61.4070   62.6760 H     3637  MOL3637     0.2052
  23911  H         20.1850   62.3190   63.1540 H     3637  MOL3637     0.2052
  23912  O        141.7260   76.5390   15.9040 O.3   3638  MOL3638    -0.4105
  23913  H        141.3360   76.0330   15.1610 H     3638  MOL3638     0.2052
  23914  H        141.0360   76.6360   16.6100 H     3638  MOL3638     0.2052
  23915  O         38.4650  182.1960  269.5670 O.3   3639  MOL3639    -0.4105
  23916  H         39.2510  181.9650  270.1040 H     3639  MOL3639     0.2052
  23917  H         38.7540  182.3070  268.6240 H     3639  MOL3639     0.2052
  23918  O         24.5610   65.5020   62.3290 O.3   3640  MOL3640    -0.4105
  23919  H         25.2870   64.8790   62.1170 H     3640  MOL3640     0.2052
  23920  H         23.7040   65.0030   62.2970 H     3640  MOL3640     0.2052
  23921  O         87.8810  137.9010  284.0860 O.3   3641  MOL3641    -0.4105
  23922  H         88.1320  136.9860  283.8410 H     3641  MOL3641     0.2052
  23923  H         88.2540  138.5180  283.4040 H     3641  MOL3641     0.2052
  23924  O         46.9690   37.2710  235.0880 O.3   3642  MOL3642    -0.4105
  23925  H         46.6980   38.2100  235.0130 H     3642  MOL3642     0.2052
  23926  H         47.7950   37.1430  234.5540 H     3642  MOL3642     0.2052
  23927  O        186.0350  134.7340  292.3890 O.3   3643  MOL3643    -0.4105
  23928  H        186.7970  135.3470  292.3200 H     3643  MOL3643     0.2052
  23929  H        185.4170  134.9210  291.6360 H     3643  MOL3643     0.2052
  23930  O        170.9050   19.7820  291.6380 O.3   3644  MOL3644    -0.4105
  23931  H        171.1790   18.9170  291.2670 H     3644  MOL3644     0.2052
  23932  H        169.9160   19.7820  291.7270 H     3644  MOL3644     0.2052
  23933  O        145.3260  127.4550  256.7050 O.3   3645  MOL3645    -0.4105
  23934  H        146.1490  126.9240  256.7430 H     3645  MOL3645     0.2052
  23935  H        144.5840  126.9020  257.0630 H     3645  MOL3645     0.2052
  23936  O        185.3470    9.4190  115.7030 O.3   3646  MOL3646    -0.4105
  23937  H        186.0910    9.5410  116.3300 H     3646  MOL3646     0.2052
  23938  H        185.6250    9.7700  114.8180 H     3646  MOL3646     0.2052
  23939  O         73.7580    1.7310  125.1100 O.3   3647  MOL3647    -0.4105
  23940  H         74.6090    1.2620  125.2340 H     3647  MOL3647     0.2052
  23941  H         73.5940    2.2940  125.9110 H     3647  MOL3647     0.2052
  23942  O         35.4890  124.9300   77.4610 O.3   3648  MOL3648    -0.4105
  23943  H         35.8350  125.3190   78.2920 H     3648  MOL3648     0.2052
  23944  H         35.6210  123.9480   77.4980 H     3648  MOL3648     0.2052
  23945  O        199.9920  125.8350  147.7790 O.3   3649  MOL3649    -0.4105
  23946  H        199.1510  126.1080  148.2010 H     3649  MOL3649     0.2052
  23947  H        199.9550  124.8560  147.6190 H     3649  MOL3649     0.2052
  23948  O        116.0410  113.9370   22.8640 O.3   3650  MOL3650    -0.4105
  23949  H        116.0750  113.0180   23.2030 H     3650  MOL3650     0.2052
  23950  H        115.1310  114.2950   23.0290 H     3650  MOL3650     0.2052
  23951  O        137.9240  125.6830   40.6060 O.3   3651  MOL3651    -0.4105
  23952  H        138.2770  125.3880   39.7410 H     3651  MOL3651     0.2052
  23953  H        138.6340  126.1960   41.0720 H     3651  MOL3651     0.2052
  23954  O        142.8460   21.9110  158.4100 O.3   3652  MOL3652    -0.4105
  23955  H        143.7190   22.0500  158.8340 H     3652  MOL3652     0.2052
  23956  H        142.9980   21.6350  157.4690 H     3652  MOL3652     0.2052
  23957  O        173.3120   37.8240   20.6330 O.3   3653  MOL3653    -0.4105
  23958  H        173.3630   38.7740   20.3950 H     3653  MOL3653     0.2052
  23959  H        173.6170   37.7230   21.5720 H     3653  MOL3653     0.2052
  23960  O         58.2520   31.9940   76.4170 O.3   3654  MOL3654    -0.4105
  23961  H         58.1140   31.0240   76.3820 H     3654  MOL3654     0.2052
  23962  H         58.9070   32.2400   75.7140 H     3654  MOL3654     0.2052
  23963  O         23.9980  105.6080   54.1570 O.3   3655  MOL3655    -0.4105
  23964  H         23.5870  105.3380   53.3090 H     3655  MOL3655     0.2052
  23965  H         23.4850  106.3770   54.5190 H     3655  MOL3655     0.2052
  23966  O        114.6100   93.6260  237.8410 O.3   3656  MOL3656    -0.4105
  23967  H        114.9440   92.7500  237.5560 H     3656  MOL3656     0.2052
  23968  H        115.3530   94.2800  237.7730 H     3656  MOL3656     0.2052
  23969  O        189.1770   11.6650   76.0880 O.3   3657  MOL3657    -0.4105
  23970  H        189.2670   10.9420   75.4330 H     3657  MOL3657     0.2052
  23971  H        189.8940   11.5600   76.7660 H     3657  MOL3657     0.2052
  23972  O        183.1410  170.1210  143.7820 O.3   3658  MOL3658    -0.4105
  23973  H        183.3810  170.5050  144.6520 H     3658  MOL3658     0.2052
  23974  H        183.3590  169.1540  143.7990 H     3658  MOL3658     0.2052
  23975  O        152.4800   93.4850   48.1380 O.3   3659  MOL3659    -0.4105
  23976  H        153.3240   93.0950   48.4480 H     3659  MOL3659     0.2052
  23977  H        152.6800   94.3570   47.7100 H     3659  MOL3659     0.2052
  23978  O         26.6710  118.1840  239.0030 O.3   3660  MOL3660    -0.4105
  23979  H         26.5900  118.9290  239.6350 H     3660  MOL3660     0.2052
  23980  H         27.0520  118.5350  238.1560 H     3660  MOL3660     0.2052
  23981  O         99.8180   56.5310   25.9020 O.3   3661  MOL3661    -0.4105
  23982  H         99.1060   56.9240   25.3570 H     3661  MOL3661     0.2052
  23983  H        100.1040   55.6820   25.4740 H     3661  MOL3661     0.2052
  23984  O         10.3180  174.3120   41.8670 O.3   3662  MOL3662    -0.4105
  23985  H          9.6010  173.6940   42.1210 H     3662  MOL3662     0.2052
  23986  H         10.2420  175.1240   42.4320 H     3662  MOL3662     0.2052
  23987  O        112.9130   43.0500   28.8780 O.3   3663  MOL3663    -0.4105
  23988  H        111.9840   43.1010   28.5690 H     3663  MOL3663     0.2052
  23989  H        113.2560   42.1400   28.6810 H     3663  MOL3663     0.2052
  23990  O        120.8290   74.8260    6.8150 O.3   3664  MOL3664    -0.4105
  23991  H        120.8350   74.1840    7.5550 H     3664  MOL3664     0.2052
  23992  H        120.1980   74.4980    6.1240 H     3664  MOL3664     0.2052
  23993  O         43.5240    4.4120   80.1780 O.3   3665  MOL3665    -0.4105
  23994  H         42.5900    4.6620   80.0150 H     3665  MOL3665     0.2052
  23995  H         44.0910    5.2100   80.0130 H     3665  MOL3665     0.2052
  23996  O        120.8440  151.5630   53.0790 O.3   3666  MOL3666    -0.4105
  23997  H        121.4890  150.9520   53.4910 H     3666  MOL3666     0.2052
  23998  H        121.0520  152.4850   53.3830 H     3666  MOL3666     0.2052
  23999  O         38.1010  154.5610  169.2390 O.3   3667  MOL3667    -0.4105
  24000  H         38.7880  155.2180  169.4800 H     3667  MOL3667     0.2052
  24001  H         37.4980  154.4440  170.0180 H     3667  MOL3667     0.2052
  24002  O        161.6020   66.9600   88.4960 O.3   3668  MOL3668    -0.4105
  24003  H        160.8870   67.4560   88.9480 H     3668  MOL3668     0.2052
  24004  H        161.9770   66.3030   89.1390 H     3668  MOL3668     0.2052
  24005  O         23.1740   75.3590  150.1510 O.3   3669  MOL3669    -0.4105
  24006  H         23.2390   74.8500  149.3160 H     3669  MOL3669     0.2052
  24007  H         24.0940   75.5550  150.4670 H     3669  MOL3669     0.2052
  24008  O         62.2640   90.2430   30.5810 O.3   3670  MOL3670    -0.4105
  24009  H         62.3830   89.2710   30.5710 H     3670  MOL3670     0.2052
  24010  H         61.2900   90.4370   30.5970 H     3670  MOL3670     0.2052
  24011  O        186.1890    8.2350   18.8940 O.3   3671  MOL3671    -0.4105
  24012  H        185.3400    7.7970   18.6750 H     3671  MOL3671     0.2052
  24013  H        186.9010    7.5440   18.9070 H     3671  MOL3671     0.2052
  24014  O        114.2440   44.6000  213.5010 O.3   3672  MOL3672    -0.4105
  24015  H        114.5050   45.3880  214.0230 H     3672  MOL3672     0.2052
  24016  H        115.0160   43.9780  213.4710 H     3672  MOL3672     0.2052
  24017  O        166.2220  152.2230  189.9200 O.3   3673  MOL3673    -0.4105
  24018  H        166.6730  152.2870  190.7870 H     3673  MOL3673     0.2052
  24019  H        166.7510  151.6170  189.3380 H     3673  MOL3673     0.2052
  24020  O        178.2660  108.9720   68.4410 O.3   3674  MOL3674    -0.4105
  24021  H        178.2440  109.4720   69.2840 H     3674  MOL3674     0.2052
  24022  H        179.0630  109.2650   67.9270 H     3674  MOL3674     0.2052
  24023  O         22.2440   80.6490  253.3210 O.3   3675  MOL3675    -0.4105
  24024  H         22.0020   81.4030  252.7440 H     3675  MOL3675     0.2052
  24025  H         21.5750   80.5900  254.0520 H     3675  MOL3675     0.2052
  24026  O         22.8320   58.3990   57.2570 O.3   3676  MOL3676    -0.4105
  24027  H         23.6000   59.0050   57.3080 H     3676  MOL3676     0.2052
  24028  H         22.4250   58.4880   56.3570 H     3676  MOL3676     0.2052
  24029  O         44.0660   83.3540  112.4420 O.3   3677  MOL3677    -0.4105
  24030  H         43.4060   83.8730  111.9370 H     3677  MOL3677     0.2052
  24031  H         44.7870   83.9690  112.7370 H     3677  MOL3677     0.2052
  24032  O        168.0750   24.7920  236.1950 O.3   3678  MOL3678    -0.4105
  24033  H        167.1840   24.3840  236.1990 H     3678  MOL3678     0.2052
  24034  H        167.9650   25.7780  236.2290 H     3678  MOL3678     0.2052
  24035  O        174.3880   17.3280  121.8010 O.3   3679  MOL3679    -0.4105
  24036  H        173.9360   17.0940  120.9640 H     3679  MOL3679     0.2052
  24037  H        173.9210   16.8670  122.5460 H     3679  MOL3679     0.2052
  24038  O          4.6550   85.2160   51.2180 O.3   3680  MOL3680    -0.4105
  24039  H          3.6760   85.2070   51.2550 H     3680  MOL3680     0.2052
  24040  H          4.9580   86.1600   51.2570 H     3680  MOL3680     0.2052
  24041  O         66.7600  122.5350  221.8240 O.3   3681  MOL3681    -0.4105
  24042  H         67.5580  122.8970  221.3850 H     3681  MOL3681     0.2052
  24043  H         65.9930  123.1290  221.6140 H     3681  MOL3681     0.2052
  24044  O         46.1700   80.6040  192.2400 O.3   3682  MOL3682    -0.4105
  24045  H         45.4640   80.0530  192.6400 H     3682  MOL3682     0.2052
  24046  H         47.0010   80.4710  192.7650 H     3682  MOL3682     0.2052
  24047  O         82.8800   43.0140  143.7550 O.3   3683  MOL3683    -0.4105
  24048  H         82.7160   42.3000  143.1030 H     3683  MOL3683     0.2052
  24049  H         82.3380   43.8030  143.4940 H     3683  MOL3683     0.2052
  24050  O        111.2420   16.3770   87.1040 O.3   3684  MOL3684    -0.4105
  24051  H        110.8380   15.5050   86.9110 H     3684  MOL3684     0.2052
  24052  H        112.2270   16.2630   87.1400 H     3684  MOL3684     0.2052
  24053  O         23.3680   76.5010  121.1330 O.3   3685  MOL3685    -0.4105
  24054  H         24.1410   75.9100  121.0200 H     3685  MOL3685     0.2052
  24055  H         23.7010   77.4280  121.2550 H     3685  MOL3685     0.2052
  24056  O         39.4570   45.7550  230.4300 O.3   3686  MOL3686    -0.4105
  24057  H         38.5170   45.4770  230.4450 H     3686  MOL3686     0.2052
  24058  H         40.0210   44.9390  230.4100 H     3686  MOL3686     0.2052
  24059  O        168.0840  124.1660  154.3320 O.3   3687  MOL3687    -0.4105
  24060  H        168.3050  123.2300  154.1460 H     3687  MOL3687     0.2052
  24061  H        167.1000  124.2380  154.4400 H     3687  MOL3687     0.2052
  24062  O          1.1720  117.5750  196.0990 O.3   3688  MOL3688    -0.4105
  24063  H          2.1240  117.4210  195.9210 H     3688  MOL3688     0.2052
  24064  H          0.7100  117.7020  195.2300 H     3688  MOL3688     0.2052
  24065  O        149.3080   63.6480  231.6190 O.3   3689  MOL3689    -0.4105
  24066  H        149.1680   62.7160  231.8880 H     3689  MOL3689     0.2052
  24067  H        150.2010   63.7170  231.1920 H     3689  MOL3689     0.2052
  24068  O         59.0210   22.5800  139.3550 O.3   3690  MOL3690    -0.4105
  24069  H         58.6490   22.8300  138.4840 H     3690  MOL3690     0.2052
  24070  H         59.2790   21.6230  139.3200 H     3690  MOL3690     0.2052
  24071  O        145.4250   85.8380   48.4000 O.3   3691  MOL3691    -0.4105
  24072  H        144.7090   85.1690   48.4330 H     3691  MOL3691     0.2052
  24073  H        145.0110   86.7290   48.2590 H     3691  MOL3691     0.2052
  24074  O         58.0010  197.2200  157.4060 O.3   3692  MOL3692    -0.4105
  24075  H         57.9950  198.0710  156.9200 H     3692  MOL3692     0.2052
  24076  H         57.7220  196.5020  156.7790 H     3692  MOL3692     0.2052
  24077  O         36.9910  151.9900  125.0350 O.3   3693  MOL3693    -0.4105
  24078  H         36.8560  151.0720  124.7180 H     3693  MOL3693     0.2052
  24079  H         36.1480  152.2990  125.4570 H     3693  MOL3693     0.2052
  24080  O        140.0790  193.8050  260.0230 O.3   3694  MOL3694    -0.4105
  24081  H        139.1750  193.9550  259.6760 H     3694  MOL3694     0.2052
  24082  H        140.7280  194.1660  259.3660 H     3694  MOL3694     0.2052
  24083  O        131.3240  179.2770  119.5350 O.3   3695  MOL3695    -0.4105
  24084  H        132.2590  179.5540  119.4460 H     3695  MOL3695     0.2052
  24085  H        130.7630  180.0930  119.5990 H     3695  MOL3695     0.2052
  24086  O         97.0470  176.6540   90.8890 O.3   3696  MOL3696    -0.4105
  24087  H         97.3170  176.7060   91.8300 H     3696  MOL3696     0.2052
  24088  H         97.8670  176.6300   90.3310 H     3696  MOL3696     0.2052
  24089  O        172.8220   50.1870  183.2300 O.3   3697  MOL3697    -0.4105
  24090  H        173.6710   50.3320  183.6980 H     3697  MOL3697     0.2052
  24091  H        172.1090   50.6700  183.7230 H     3697  MOL3697     0.2052
  24092  O         80.4350  196.5080  270.2510 O.3   3698  MOL3698    -0.4105
  24093  H         80.1060  197.4120  270.0620 H     3698  MOL3698     0.2052
  24094  H         79.6530  195.9000  270.3120 H     3698  MOL3698     0.2052
  24095  O         26.2080   57.4140  197.8890 O.3   3699  MOL3699    -0.4105
  24096  H         26.3570   58.1100  198.5630 H     3699  MOL3699     0.2052
  24097  H         25.4600   57.7030  197.3050 H     3699  MOL3699     0.2052
  24098  O        191.0260   48.7060   93.0720 O.3   3700  MOL3700    -0.4105
  24099  H        190.7160   48.9070   92.1640 H     3700  MOL3700     0.2052
  24100  H        190.3110   48.2000   93.5380 H     3700  MOL3700     0.2052
  24101  O         10.8250  102.0680  158.8810 O.3   3701  MOL3701    -0.4105
  24102  H         10.4230  102.9620  158.8830 H     3701  MOL3701     0.2052
  24103  H         10.0930  101.3990  158.8800 H     3701  MOL3701     0.2052
  24104  O         57.4290  168.6960   45.5540 O.3   3702  MOL3702    -0.4105
  24105  H         57.7760  168.4230   46.4300 H     3702  MOL3702     0.2052
  24106  H         57.8070  168.0880   44.8680 H     3702  MOL3702     0.2052
  24107  O        129.4720  117.3050  277.9540 O.3   3703  MOL3703    -0.4105
  24108  H        129.9460  117.2640  277.0970 H     3703  MOL3703     0.2052
  24109  H        129.0080  118.1810  278.0100 H     3703  MOL3703     0.2052
  24110  O         68.3660  187.9450  219.5220 O.3   3704  MOL3704    -0.4105
  24111  H         67.4210  187.8580  219.7670 H     3704  MOL3704     0.2052
  24112  H         68.9150  187.7390  220.3230 H     3704  MOL3704     0.2052
  24113  O        177.0470  113.5990  204.5790 O.3   3705  MOL3705    -0.4105
  24114  H        176.8120  114.5470  204.6530 H     3705  MOL3705     0.2052
  24115  H        177.9760  113.4820  204.9060 H     3705  MOL3705     0.2052
  24116  O        111.4950   80.7680  253.1870 O.3   3706  MOL3706    -0.4105
  24117  H        112.0950   80.0160  253.3700 H     3706  MOL3706     0.2052
  24118  H        110.5740   80.4120  253.0820 H     3706  MOL3706     0.2052
  24119  O         78.0010  105.1270   74.9020 O.3   3707  MOL3707    -0.4105
  24120  H         78.6100  105.8920   74.8320 H     3707  MOL3707     0.2052
  24121  H         77.1020  105.4690   75.1470 H     3707  MOL3707     0.2052
  24122  O        163.2170  149.2280  243.7870 O.3   3708  MOL3708    -0.4105
  24123  H        163.6980  148.3750  243.7640 H     3708  MOL3708     0.2052
  24124  H        162.2770  149.0470  244.0500 H     3708  MOL3708     0.2052
  24125  O        186.7470  165.0170  160.1170 O.3   3709  MOL3709    -0.4105
  24126  H        187.2370  165.8370  159.8980 H     3709  MOL3709     0.2052
  24127  H        185.7760  165.2030  160.0340 H     3709  MOL3709     0.2052
  24128  O         16.9260   80.6360  134.5820 O.3   3710  MOL3710    -0.4105
  24129  H         17.7750   80.1570  134.4880 H     3710  MOL3710     0.2052
  24130  H         16.9580   81.1610  135.4240 H     3710  MOL3710     0.2052
  24131  O         36.0240  198.0190  267.0580 O.3   3711  MOL3711    -0.4105
  24132  H         35.0850  198.2080  267.2670 H     3711  MOL3711     0.2052
  24133  H         36.5900  198.6370  267.5890 H     3711  MOL3711     0.2052
  24134  O        169.9040  155.7330  173.2580 O.3   3712  MOL3712    -0.4105
  24135  H        168.9360  155.8670  173.1810 H     3712  MOL3712     0.2052
  24136  H        170.0900  154.7620  173.1810 H     3712  MOL3712     0.2052
  24137  O        156.9550   87.7780  249.2130 O.3   3713  MOL3713    -0.4105
  24138  H        156.1680   87.9420  249.7740 H     3713  MOL3713     0.2052
  24139  H        156.6730   87.8200  248.2630 H     3713  MOL3713     0.2052
  24140  O        191.0870   24.6020  270.6080 O.3   3714  MOL3714    -0.4105
  24141  H        191.9230   24.2680  270.2210 H     3714  MOL3714     0.2052
  24142  H        190.5940   23.8310  270.9920 H     3714  MOL3714     0.2052
  24143  O         34.3270  197.1470  285.4900 O.3   3715  MOL3715    -0.4105
  24144  H         34.9920  197.8610  285.3960 H     3715  MOL3715     0.2052
  24145  H         33.8990  197.0030  284.6060 H     3715  MOL3715     0.2052
  24146  O        137.1530   48.0690  269.9410 O.3   3716  MOL3716    -0.4105
  24147  H        137.7650   48.7380  269.5670 H     3716  MOL3716     0.2052
  24148  H        136.9470   47.4070  269.2310 H     3716  MOL3716     0.2052
  24149  O        143.8500  193.0090  270.0470 O.3   3717  MOL3717    -0.4105
  24150  H        144.2050  192.1110  270.2140 H     3717  MOL3717     0.2052
  24151  H        142.9160  192.9190  269.7230 H     3717  MOL3717     0.2052
  24152  O         68.1100   55.3060  218.3740 O.3   3718  MOL3718    -0.4105
  24153  H         67.1720   55.5880  218.3700 H     3718  MOL3718     0.2052
  24154  H         68.6780   56.1200  218.3860 H     3718  MOL3718     0.2052
  24155  O         31.6640   55.0740   74.8030 O.3   3719  MOL3719    -0.4105
  24156  H         31.0110   54.4930   74.3590 H     3719  MOL3719     0.2052
  24157  H         31.6680   54.8530   75.7700 H     3719  MOL3719     0.2052
  24158  O         19.5090  139.6610   62.8240 O.3   3720  MOL3720    -0.4105
  24159  H         18.6770  140.1350   63.0360 H     3720  MOL3720     0.2052
  24160  H         19.2900  138.7070   62.6630 H     3720  MOL3720     0.2052
  24161  O         80.9130   98.3410  188.8980 O.3   3721  MOL3721    -0.4105
  24162  H         80.3680   99.1470  188.7770 H     3721  MOL3721     0.2052
  24163  H         81.8680   98.5980  188.8230 H     3721  MOL3721     0.2052
  24164  O        100.9590   15.7600  125.6120 O.3   3722  MOL3722    -0.4105
  24165  H        100.3320   15.0340  125.8160 H     3722  MOL3722     0.2052
  24166  H        100.6130   16.2580  124.8270 H     3722  MOL3722     0.2052
  24167  O        162.1630  156.2770   58.5870 O.3   3723  MOL3723    -0.4105
  24168  H        162.4400  155.3410   58.5030 H     3723  MOL3723     0.2052
  24169  H        162.7930  156.8360   58.0610 H     3723  MOL3723     0.2052
  24170  O        129.4310   75.9310   34.0580 O.3   3724  MOL3724    -0.4105
  24171  H        128.6780   75.5420   34.5500 H     3724  MOL3724     0.2052
  24172  H        129.3520   75.6610   33.1070 H     3724  MOL3724     0.2052
  24173  O         99.4150   33.4770  115.1400 O.3   3725  MOL3725    -0.4105
  24174  H         98.8610   34.2320  114.8490 H     3725  MOL3725     0.2052
  24175  H        100.3640   33.6980  114.9510 H     3725  MOL3725     0.2052
  24176  O        141.3800   18.6360   88.3360 O.3   3726  MOL3726    -0.4105
  24177  H        141.6860   19.5590   88.2120 H     3726  MOL3726     0.2052
  24178  H        140.3880   18.6390   88.3670 H     3726  MOL3726     0.2052
  24179  O         40.6250   48.8230  230.7670 O.3   3727  MOL3727    -0.4105
  24180  H         41.2340   49.5900  230.7410 H     3727  MOL3727     0.2052
  24181  H         39.6940   49.1660  230.7860 H     3727  MOL3727     0.2052
  24182  O        172.7790  187.7950   91.2290 O.3   3728  MOL3728    -0.4105
  24183  H        171.8330  187.5460   91.1740 H     3728  MOL3728     0.2052
  24184  H        172.8400  188.6900   91.6530 H     3728  MOL3728     0.2052
  24185  O         85.7960  129.9130  211.5490 O.3   3729  MOL3729    -0.4105
  24186  H         85.2370  130.7100  211.4370 H     3729  MOL3729     0.2052
  24187  H         86.6990  130.1150  211.1900 H     3729  MOL3729     0.2052
  24188  O         97.6420  125.7050  273.1930 O.3   3730  MOL3730    -0.4105
  24189  H         97.7380  126.6230  273.5220 H     3730  MOL3730     0.2052
  24190  H         96.7720  125.6350  272.7200 H     3730  MOL3730     0.2052
  24191  O        155.1910  130.7370  277.6890 O.3   3731  MOL3731    -0.4105
  24192  H        155.9370  131.1820  278.1420 H     3731  MOL3731     0.2052
  24193  H        154.3440  131.1150  278.0410 H     3731  MOL3731     0.2052
  24194  O         16.7330  171.4710   36.4120 O.3   3732  MOL3732    -0.4105
  24195  H         16.5630  170.7330   37.0340 H     3732  MOL3732     0.2052
  24196  H         17.6850  171.7360   36.4970 H     3732  MOL3732     0.2052
  24197  O         62.4970  113.3090  275.1930 O.3   3733  MOL3733    -0.4105
  24198  H         62.5550  114.2860  275.2420 H     3733  MOL3733     0.2052
  24199  H         61.5990  113.0350  275.5130 H     3733  MOL3733     0.2052
  24200  O        197.1280   59.7920   26.2540 O.3   3734  MOL3734    -0.4105
  24201  H        196.6110   60.6250   26.2430 H     3734  MOL3734     0.2052
  24202  H        196.5340   59.0630   26.5720 H     3734  MOL3734     0.2052
  24203  O        122.4830   61.6110    4.3030 O.3   3735  MOL3735    -0.4105
  24204  H        121.5040   61.6580    4.3130 H     3735  MOL3735     0.2052
  24205  H        122.8390   62.4840    4.6120 H     3735  MOL3735     0.2052
  24206  O         29.9060  154.5360  242.4200 O.3   3736  MOL3736    -0.4105
  24207  H         29.0620  154.0430  242.3500 H     3736  MOL3736     0.2052
  24208  H         29.6970  155.4730  242.6740 H     3736  MOL3736     0.2052
  24209  O          0.5580   27.2900   13.7990 O.3   3737  MOL3737    -0.4105
  24210  H          0.0300   28.0400   13.4550 H     3737  MOL3737     0.2052
  24211  H          1.4950   27.5970   13.9140 H     3737  MOL3737     0.2052
  24212  O        153.3310  113.7730  236.3560 O.3   3738  MOL3738    -0.4105
  24213  H        153.1260  112.8710  236.0300 H     3738  MOL3738     0.2052
  24214  H        154.3050  113.8210  236.5440 H     3738  MOL3738     0.2052
  24215  O         34.5980   17.5380  120.2810 O.3   3739  MOL3739    -0.4105
  24216  H         35.4410   17.6370  119.7900 H     3739  MOL3739     0.2052
  24217  H         34.3070   16.5920  120.2090 H     3739  MOL3739     0.2052
  24218  O         97.6790   30.7190   21.3750 O.3   3740  MOL3740    -0.4105
  24219  H         97.1500   31.2220   22.0300 H     3740  MOL3740     0.2052
  24220  H         98.2010   31.3680   20.8340 H     3740  MOL3740     0.2052
  24221  O         25.8580  192.3850   81.3960 O.3   3741  MOL3741    -0.4105
  24222  H         25.1940  192.0210   82.0170 H     3741  MOL3741     0.2052
  24223  H         26.2220  191.6360   80.8570 H     3741  MOL3741     0.2052
  24224  O          8.4840  192.4780  111.5120 O.3   3742  MOL3742    -0.4105
  24225  H          8.9730  192.1990  112.3140 H     3742  MOL3742     0.2052
  24226  H          7.8230  193.1690  111.7770 H     3742  MOL3742     0.2052
  24227  O         90.1880   88.8660  271.2010 O.3   3743  MOL3743    -0.4105
  24228  H         91.0510   89.0960  271.6050 H     3743  MOL3743     0.2052
  24229  H         89.5040   88.8480  271.9200 H     3743  MOL3743     0.2052
  24230  O         34.2880  175.1380  179.9590 O.3   3744  MOL3744    -0.4105
  24231  H         34.7930  175.2640  180.7900 H     3744  MOL3744     0.2052
  24232  H         34.1880  174.1640  179.8020 H     3744  MOL3744     0.2052
  24233  O         72.4420   51.0290  295.8590 O.3   3745  MOL3745    -0.4105
  24234  H         73.1900   50.4010  295.9460 H     3745  MOL3745     0.2052
  24235  H         72.8120   51.9490  295.8310 H     3745  MOL3745     0.2052
  24236  O         35.4100  144.1130   33.5140 O.3   3746  MOL3746    -0.4105
  24237  H         34.7310  144.8110   33.4030 H     3746  MOL3746     0.2052
  24238  H         36.3040  144.5440   33.5050 H     3746  MOL3746     0.2052
  24239  O         42.3510  156.6100   76.2890 O.3   3747  MOL3747    -0.4105
  24240  H         42.1320  157.4810   76.6810 H     3747  MOL3747     0.2052
  24241  H         41.7990  156.4890   75.4740 H     3747  MOL3747     0.2052
  24242  O         83.6370   84.9450  232.2210 O.3   3748  MOL3748    -0.4105
  24243  H         83.2570   85.7630  232.6030 H     3748  MOL3748     0.2052
  24244  H         83.3800   84.9010  231.2640 H     3748  MOL3748     0.2052
  24245  O        173.4290  157.7200   10.6980 O.3   3749  MOL3749    -0.4105
  24246  H        172.5940  158.1840   10.9170 H     3749  MOL3749     0.2052
  24247  H        173.9630  157.6330   11.5300 H     3749  MOL3749     0.2052
  24248  O        165.8880   61.0910  246.5470 O.3   3750  MOL3750    -0.4105
  24249  H        166.7990   61.4250  246.6830 H     3750  MOL3750     0.2052
  24250  H        165.2690   61.8670  246.5610 H     3750  MOL3750     0.2052
  24251  O         36.8000   24.8270   22.8220 O.3   3751  MOL3751    -0.4105
  24252  H         36.3290   25.6820   22.7320 H     3751  MOL3751     0.2052
  24253  H         37.5800   24.9630   23.4190 H     3751  MOL3751     0.2052
  24254  O         17.7740  181.9950   10.1470 O.3   3752  MOL3752    -0.4105
  24255  H         18.4620  181.9440    9.4510 H     3752  MOL3752     0.2052
  24256  H         18.1710  181.6760   10.9990 H     3752  MOL3752     0.2052
  24257  O         89.1390  168.9070  211.1560 O.3   3753  MOL3753    -0.4105
  24258  H         89.8880  169.5400  211.1580 H     3753  MOL3753     0.2052
  24259  H         88.2940  169.4260  211.1150 H     3753  MOL3753     0.2052
  24260  O        154.8200  197.6780  153.3700 O.3   3754  MOL3754    -0.4105
  24261  H        154.8000  196.7110  153.2150 H     3754  MOL3754     0.2052
  24262  H        155.3800  197.8540  154.1700 H     3754  MOL3754     0.2052
  24263  O        195.7800   39.9620   21.2500 O.3   3755  MOL3755    -0.4105
  24264  H        195.5730   40.8830   20.9900 H     3755  MOL3755     0.2052
  24265  H        196.1470   39.9740   22.1720 H     3755  MOL3755     0.2052
  24266  O         41.7880  136.5930   36.0200 O.3   3756  MOL3756    -0.4105
  24267  H         42.2700  137.2620   36.5500 H     3756  MOL3756     0.2052
  24268  H         40.8610  136.9200   35.8770 H     3756  MOL3756     0.2052
  24269  O        106.2880  183.0570   46.2280 O.3   3757  MOL3757    -0.4105
  24270  H        106.5420  182.8780   45.2980 H     3757  MOL3757     0.2052
  24271  H        106.9460  182.6110   46.8210 H     3757  MOL3757     0.2052
  24272  O        100.4890  124.3160   25.4100 O.3   3758  MOL3758    -0.4105
  24273  H         99.7960  124.2450   26.0990 H     3758  MOL3758     0.2052
  24274  H        100.6610  123.4080   25.0490 H     3758  MOL3758     0.2052
  24275  O         36.0330  165.2390  282.9340 O.3   3759  MOL3759    -0.4105
  24276  H         35.0610  165.1230  282.8850 H     3759  MOL3759     0.2052
  24277  H         36.2300  166.2110  282.9340 H     3759  MOL3759     0.2052
  24278  O        164.7490   23.7580  148.8230 O.3   3760  MOL3760    -0.4105
  24279  H        164.0190   23.1110  148.9080 H     3760  MOL3760     0.2052
  24280  H        164.4320   24.6310  149.1730 H     3760  MOL3760     0.2052
  24281  O        123.9350  125.8890  175.9120 O.3   3761  MOL3761    -0.4105
  24282  H        124.7570  126.1260  175.4340 H     3761  MOL3761     0.2052
  24283  H        123.9090  126.4030  176.7600 H     3761  MOL3761     0.2052
  24284  O        148.6400    8.6550   40.4180 O.3   3762  MOL3762    -0.4105
  24285  H        149.0140    9.5570   40.3300 H     3762  MOL3762     0.2052
  24286  H        148.5870    8.2520   39.5130 H     3762  MOL3762     0.2052
  24287  O         11.1790   97.5260   71.1460 O.3   3763  MOL3763    -0.4105
  24288  H         11.5970   98.3990   70.9970 H     3763  MOL3763     0.2052
  24289  H         10.6950   97.2680   70.3190 H     3763  MOL3763     0.2052
  24290  O        119.9640   49.5340   40.5150 O.3   3764  MOL3764    -0.4105
  24291  H        120.2130   48.6090   40.3070 H     3764  MOL3764     0.2052
  24292  H        120.4670   49.8170   41.3220 H     3764  MOL3764     0.2052
  24293  O        167.1230   39.1930  281.0210 O.3   3765  MOL3765    -0.4105
  24294  H        166.1640   39.0650  280.8600 H     3765  MOL3765     0.2052
  24295  H        167.5220   39.6030  280.2110 H     3765  MOL3765     0.2052
  24296  O         65.5690  160.3430    3.4960 O.3   3766  MOL3766    -0.4105
  24297  H         65.9980  161.2230    3.4630 H     3766  MOL3766     0.2052
  24298  H         66.2530  159.6740    3.7600 H     3766  MOL3766     0.2052
  24299  O         19.5540  195.3700  101.6740 O.3   3767  MOL3767    -0.4105
  24300  H         20.3690  195.7270  102.0840 H     3767  MOL3767     0.2052
  24301  H         18.7760  195.8510  102.0590 H     3767  MOL3767     0.2052
  24302  O          5.8450  108.0330  165.7030 O.3   3768  MOL3768    -0.4105
  24303  H          6.7190  108.1740  166.1240 H     3768  MOL3768     0.2052
  24304  H          5.1960  108.6570  166.1180 H     3768  MOL3768     0.2052
  24305  O         44.0640  116.7490  279.3230 O.3   3769  MOL3769    -0.4105
  24306  H         43.1370  117.0620  279.2630 H     3769  MOL3769     0.2052
  24307  H         44.6630  117.5320  279.2130 H     3769  MOL3769     0.2052
  24308  O        125.0040   80.1240  246.1290 O.3   3770  MOL3770    -0.4105
  24309  H        125.4660   80.7900  246.6780 H     3770  MOL3770     0.2052
  24310  H        124.9070   79.2930  246.6630 H     3770  MOL3770     0.2052
  24311  O         30.8330   48.1300   22.2890 O.3   3771  MOL3771    -0.4105
  24312  H         31.4690   47.3850   22.3330 H     3771  MOL3771     0.2052
  24313  H         29.9150   47.7540   22.2970 H     3771  MOL3771     0.2052
  24314  O        123.1140  195.2740  193.2990 O.3   3772  MOL3772    -0.4105
  24315  H        123.8860  195.3470  192.7000 H     3772  MOL3772     0.2052
  24316  H        122.6560  196.1540  193.3250 H     3772  MOL3772     0.2052
  24317  O        146.7100   51.3930  293.3440 O.3   3773  MOL3773    -0.4105
  24318  H        147.6760   51.2280  293.3590 H     3773  MOL3773     0.2052
  24319  H        146.5600   52.3700  293.4310 H     3773  MOL3773     0.2052
  24320  O        159.6000  170.5450  148.0030 O.3   3774  MOL3774    -0.4105
  24321  H        159.5980  171.4410  147.6070 H     3774  MOL3774     0.2052
  24322  H        158.7490  170.0960  147.7590 H     3774  MOL3774     0.2052
  24323  O        132.8960  131.1480   79.5880 O.3   3775  MOL3775    -0.4105
  24324  H        133.0260  130.2000   79.7970 H     3775  MOL3775     0.2052
  24325  H        132.7580  131.2350   78.6100 H     3775  MOL3775     0.2052
  24326  O        198.9320    1.6360   80.9390 O.3   3776  MOL3776    -0.4105
  24327  H        198.0670    2.0950   80.9010 H     3776  MOL3776     0.2052
  24328  H        198.8190    0.7270   80.5580 H     3776  MOL3776     0.2052
  24329  O        143.9450  177.2300   59.3630 O.3   3777  MOL3777    -0.4105
  24330  H        144.6140  177.7960   59.8010 H     3777  MOL3777     0.2052
  24331  H        144.0560  176.3020   59.6960 H     3777  MOL3777     0.2052
  24332  O         94.1280  166.0600  215.8780 O.3   3778  MOL3778    -0.4105
  24333  H         93.6190  166.8980  215.8620 H     3778  MOL3778     0.2052
  24334  H         94.9600  166.2120  216.3960 H     3778  MOL3778     0.2052
  24335  O         69.3200   41.1230    8.9020 O.3   3779  MOL3779    -0.4105
  24336  H         68.7390   40.3750    8.6480 H     3779  MOL3779     0.2052
  24337  H         68.7610   41.9400    8.9720 H     3779  MOL3779     0.2052
  24338  O        144.4790   35.0200  146.6850 O.3   3780  MOL3780    -0.4105
  24339  H        145.3880   34.8150  146.3810 H     3780  MOL3780     0.2052
  24340  H        144.3960   36.0040  146.7750 H     3780  MOL3780     0.2052
  24341  O        109.1110   96.1040   22.7920 O.3   3781  MOL3781    -0.4105
  24342  H        109.0830   97.0280   23.1180 H     3781  MOL3781     0.2052
  24343  H        109.6190   95.5590   23.4480 H     3781  MOL3781     0.2052
  24344  O         60.8850  169.7750   89.0840 O.3   3782  MOL3782    -0.4105
  24345  H         61.8130  169.4690   89.1490 H     3782  MOL3782     0.2052
  24346  H         60.2990  168.9770   89.0170 H     3782  MOL3782     0.2052
  24347  O        191.7000   33.6500  187.2760 O.3   3783  MOL3783    -0.4105
  24348  H        191.0480   32.9880  186.9640 H     3783  MOL3783     0.2052
  24349  H        192.5080   33.1670  187.5890 H     3783  MOL3783     0.2052
  24350  O        104.3280  196.2390  147.5720 O.3   3784  MOL3784    -0.4105
  24351  H        103.7970  197.0600  147.6490 H     3784  MOL3784     0.2052
  24352  H        103.7040  195.4770  147.4450 H     3784  MOL3784     0.2052
  24353  O         95.2320  151.8400   83.6830 O.3   3785  MOL3785    -0.4105
  24354  H         95.5010  152.6210   84.2100 H     3785  MOL3785     0.2052
  24355  H         94.4350  152.0880   83.1460 H     3785  MOL3785     0.2052
  24356  O          8.1680   47.4750  197.3240 O.3   3786  MOL3786    -0.4105
  24357  H          8.6550   48.2880  197.5750 H     3786  MOL3786     0.2052
  24358  H          7.7700   47.0850  198.1450 H     3786  MOL3786     0.2052
  24359  O         81.9400   19.3680  119.1290 O.3   3787  MOL3787    -0.4105
  24360  H         81.4110   18.7750  119.7020 H     3787  MOL3787     0.2052
  24361  H         81.5380   20.2740  119.1660 H     3787  MOL3787     0.2052
  24362  O        114.4680   63.6360  181.4150 O.3   3788  MOL3788    -0.4105
  24363  H        113.4890   63.5780  181.4310 H     3788  MOL3788     0.2052
  24364  H        114.7770   63.4130  180.4990 H     3788  MOL3788     0.2052
  24365  O        139.7210  181.4390   85.8640 O.3   3789  MOL3789    -0.4105
  24366  H        139.9140  182.3830   85.6860 H     3789  MOL3789     0.2052
  24367  H        140.5670  180.9280   85.7770 H     3789  MOL3789     0.2052
  24368  O        160.7470  152.4190  221.6560 O.3   3790  MOL3790    -0.4105
  24369  H        160.4560  153.3540  221.6600 H     3790  MOL3790     0.2052
  24370  H        159.9400  151.8420  221.6500 H     3790  MOL3790     0.2052
  24371  O         94.5000  174.9890  263.6670 O.3   3791  MOL3791    -0.4105
  24372  H         93.7700  174.5380  264.1400 H     3791  MOL3791     0.2052
  24373  H         95.1510  174.3010  263.3710 H     3791  MOL3791     0.2052
  24374  O         55.1020   63.7610  239.5050 O.3   3792  MOL3792    -0.4105
  24375  H         54.4750   63.0630  239.2230 H     3792  MOL3792     0.2052
  24376  H         54.5830   64.5840  239.7030 H     3792  MOL3792     0.2052
  24377  O         39.2180  182.2300  212.3830 O.3   3793  MOL3793    -0.4105
  24378  H         39.7970  182.9780  212.1250 H     3793  MOL3793     0.2052
  24379  H         39.7950  181.4730  212.6640 H     3793  MOL3793     0.2052
  24380  O        133.9010  156.7370  256.4460 O.3   3794  MOL3794    -0.4105
  24381  H        133.1240  156.8630  255.8630 H     3794  MOL3794     0.2052
  24382  H        133.9560  155.7760  256.6880 H     3794  MOL3794     0.2052
  24383  O         50.6720  126.8630  177.3400 O.3   3795  MOL3795    -0.4105
  24384  H         50.9440  127.4700  178.0600 H     3795  MOL3795     0.2052
  24385  H         50.1120  126.1440  177.7340 H     3795  MOL3795     0.2052
  24386  O         17.9430  171.2000  211.1070 O.3   3796  MOL3796    -0.4105
  24387  H         18.2640  172.1230  211.1820 H     3796  MOL3796     0.2052
  24388  H         18.6950  170.6350  210.7930 H     3796  MOL3796     0.2052
  24389  O        139.4600  171.6940  212.0590 O.3   3797  MOL3797    -0.4105
  24390  H        139.9340  171.6100  211.2050 H     3797  MOL3797     0.2052
  24391  H        139.1250  170.7960  212.3170 H     3797  MOL3797     0.2052
  24392  O         14.6340  103.2070   51.2890 O.3   3798  MOL3798    -0.4105
  24393  H         15.5000  103.2120   51.7480 H     3798  MOL3798     0.2052
  24394  H         14.6210  103.9580   50.6410 H     3798  MOL3798     0.2052
  24395  O         31.5780    1.9840  220.4250 O.3   3799  MOL3799    -0.4105
  24396  H         31.6070    2.3780  219.5280 H     3799  MOL3799     0.2052
  24397  H         31.6210    0.9970  220.3330 H     3799  MOL3799     0.2052
  24398  O        103.7960   84.6110   35.0700 O.3   3800  MOL3800    -0.4105
  24399  H        103.1380   85.2590   35.4000 H     3800  MOL3800     0.2052
  24400  H        103.3210   83.9440   34.5100 H     3800  MOL3800     0.2052
  24401  O         49.3130  184.1690    3.8290 O.3   3801  MOL3801    -0.4105
  24402  H         50.0690  184.7600    4.0280 H     3801  MOL3801     0.2052
  24403  H         48.4930  184.7250    3.7650 H     3801  MOL3801     0.2052
  24404  O          5.9330   31.9280  228.5940 O.3   3802  MOL3802    -0.4105
  24405  H          6.0470   32.2540  229.5110 H     3802  MOL3802     0.2052
  24406  H          6.4620   31.0950  228.4910 H     3802  MOL3802     0.2052
  24407  O        168.8380  173.0160  299.2760 O.3   3803  MOL3803    -0.4105
  24408  H        167.8970  173.2850  299.3200 H     3803  MOL3803     0.2052
  24409  H        169.3940  173.8370  299.2520 H     3803  MOL3803     0.2052
  24410  O          6.5630   84.2330  223.5810 O.3   3804  MOL3804    -0.4105
  24411  H          6.9830   83.6560  224.2520 H     3804  MOL3804     0.2052
  24412  H          7.1520   85.0180  223.4340 H     3804  MOL3804     0.2052
  24413  O        188.7810  130.4180  211.0470 O.3   3805  MOL3805    -0.4105
  24414  H        188.8120  131.0340  210.2850 H     3805  MOL3805     0.2052
  24415  H        188.8520  129.4910  210.7000 H     3805  MOL3805     0.2052
  24416  O        130.0690   18.3320   50.7130 O.3   3806  MOL3806    -0.4105
  24417  H        129.2070   18.7180   50.4520 H     3806  MOL3806     0.2052
  24418  H        130.6590   19.0680   51.0220 H     3806  MOL3806     0.2052
  24419  O        118.2590  153.2710  215.2380 O.3   3807  MOL3807    -0.4105
  24420  H        118.7970  153.2200  216.0560 H     3807  MOL3807     0.2052
  24421  H        118.7750  152.8530  214.5010 H     3807  MOL3807     0.2052
  24422  O         15.8700  167.2420   19.6810 O.3   3808  MOL3808    -0.4105
  24423  H         15.7490  168.1990   19.8570 H     3808  MOL3808     0.2052
  24424  H         14.9790  166.8450   19.4990 H     3808  MOL3808     0.2052
  24425  O         28.6570    1.4220   21.7740 O.3   3809  MOL3809    -0.4105
  24426  H         27.7210    1.6220   21.5650 H     3809  MOL3809     0.2052
  24427  H         28.7580    0.4370   21.8390 H     3809  MOL3809     0.2052
  24428  O          4.8420  191.5860   28.0820 O.3   3810  MOL3810    -0.4105
  24429  H          4.1740  192.0090   27.5030 H     3810  MOL3810     0.2052
  24430  H          5.0200  190.6730   27.7350 H     3810  MOL3810     0.2052
  24431  O        137.8500  189.8530   26.4930 O.3   3811  MOL3811    -0.4105
  24432  H        137.9910  190.6030   27.1070 H     3811  MOL3811     0.2052
  24433  H        136.8770  189.6600   26.4580 H     3811  MOL3811     0.2052
  24434  O         61.8530   28.0260  253.2860 O.3   3812  MOL3812    -0.4105
  24435  H         62.3430   28.3890  252.5190 H     3812  MOL3812     0.2052
  24436  H         61.7460   27.0490  253.1510 H     3812  MOL3812     0.2052
  24437  O         66.3870   80.5560  277.2110 O.3   3813  MOL3813    -0.4105
  24438  H         66.9480   80.7690  276.4360 H     3813  MOL3813     0.2052
  24439  H         66.5540   79.6110  277.4630 H     3813  MOL3813     0.2052
  24440  O        199.6670  187.6440  150.5990 O.3   3814  MOL3814    -0.4105
  24441  H        199.3350  186.7910  150.9500 H     3814  MOL3814     0.2052
  24442  H        198.9000  188.1390  150.2090 H     3814  MOL3814     0.2052
  24443  O         40.3430   35.2590  270.0310 O.3   3815  MOL3815    -0.4105
  24444  H         40.7530   34.5260  269.5280 H     3815  MOL3815     0.2052
  24445  H         41.0400   35.9440  270.2050 H     3815  MOL3815     0.2052
  24446  O        128.2180  185.4860  113.5950 O.3   3816  MOL3816    -0.4105
  24447  H        127.4440  186.0780  113.4910 H     3816  MOL3816     0.2052
  24448  H        129.0350  186.0480  113.6400 H     3816  MOL3816     0.2052
  24449  O        125.9290  121.2860  283.6840 O.3   3817  MOL3817    -0.4105
  24450  H        126.3520  122.1560  283.8390 H     3817  MOL3817     0.2052
  24451  H        126.3950  120.6100  284.2400 H     3817  MOL3817     0.2052
  24452  O        102.9280   85.2500  249.0360 O.3   3818  MOL3818    -0.4105
  24453  H        102.8730   86.2260  248.9620 H     3818  MOL3818     0.2052
  24454  H        103.8800   84.9850  248.9530 H     3818  MOL3818     0.2052
  24455  O         82.7690  161.2450   71.4610 O.3   3819  MOL3819    -0.4105
  24456  H         82.3510  162.1320   71.4400 H     3819  MOL3819     0.2052
  24457  H         83.2830  161.1240   70.6210 H     3819  MOL3819     0.2052
  24458  O         68.1520   47.0240   46.4640 O.3   3820  MOL3820    -0.4105
  24459  H         69.0840   46.8700   46.2060 H     3820  MOL3820     0.2052
  24460  H         67.6990   46.1440   46.5320 H     3820  MOL3820     0.2052
  24461  O        185.3520  127.6760  228.4570 O.3   3821  MOL3821    -0.4105
  24462  H        186.3230  127.5500  228.4450 H     3821  MOL3821     0.2052
  24463  H        185.1650  128.6440  228.5730 H     3821  MOL3821     0.2052
  24464  O        124.1430  160.2480  290.9870 O.3   3822  MOL3822    -0.4105
  24465  H        123.5760  160.8960  291.4570 H     3822  MOL3822     0.2052
  24466  H        123.8280  159.3360  291.2180 H     3822  MOL3822     0.2052
  24467  O         94.4760  155.0870  167.1290 O.3   3823  MOL3823    -0.4105
  24468  H         94.9930  154.2810  166.9190 H     3823  MOL3823     0.2052
  24469  H         93.5990  154.8070  167.4980 H     3823  MOL3823     0.2052
  24470  O         71.3880   66.0900  297.7130 O.3   3824  MOL3824    -0.4105
  24471  H         71.7990   66.9790  297.7050 H     3824  MOL3824     0.2052
  24472  H         70.4020   66.2040  297.7230 H     3824  MOL3824     0.2052
  24473  O        123.1150  154.4320  238.0560 O.3   3825  MOL3825    -0.4105
  24474  H        122.2090  154.0980  238.2200 H     3825  MOL3825     0.2052
  24475  H        123.3780  154.1760  237.1340 H     3825  MOL3825     0.2052
  24476  O         55.0760   22.6050   68.4330 O.3   3826  MOL3826    -0.4105
  24477  H         55.6940   23.3530   68.2960 H     3826  MOL3826     0.2052
  24478  H         54.1500   22.9590   68.4110 H     3826  MOL3826     0.2052
  24479  O         53.1950  137.3370  269.7820 O.3   3827  MOL3827    -0.4105
  24480  H         52.2340  137.5280  269.7830 H     3827  MOL3827     0.2052
  24481  H         53.6830  138.2010  269.7790 H     3827  MOL3827     0.2052
  24482  O         12.0670  195.2440  187.5140 O.3   3828  MOL3828    -0.4105
  24483  H         11.0920  195.1990  187.4320 H     3828  MOL3828     0.2052
  24484  H         12.4010  194.3380  187.7450 H     3828  MOL3828     0.2052
  24485  O        104.0570   36.3250  195.9110 O.3   3829  MOL3829    -0.4105
  24486  H        103.8870   37.1880  195.4790 H     3829  MOL3829     0.2052
  24487  H        104.6650   36.4770  196.6800 H     3829  MOL3829     0.2052
  24488  O        171.8020  162.4980   92.6200 O.3   3830  MOL3830    -0.4105
  24489  H        172.7240  162.6390   92.9210 H     3830  MOL3830     0.2052
  24490  H        171.8290  162.0390   91.7410 H     3830  MOL3830     0.2052
  24491  O        104.1530   99.4820  174.2180 O.3   3831  MOL3831    -0.4105
  24492  H        104.8480   99.7740  173.5920 H     3831  MOL3831     0.2052
  24493  H        104.0920   98.4920  174.1740 H     3831  MOL3831     0.2052
  24494  O        110.6270   78.8880  173.7940 O.3   3832  MOL3832    -0.4105
  24495  H        111.3940   79.4270  173.5080 H     3832  MOL3832     0.2052
  24496  H        110.7260   77.9790  173.4090 H     3832  MOL3832     0.2052
  24497  O        171.0870  190.6610  170.8720 O.3   3833  MOL3833    -0.4105
  24498  H        171.0820  191.3630  170.1880 H     3833  MOL3833     0.2052
  24499  H        171.3780  191.0660  171.7300 H     3833  MOL3833     0.2052
  24500  O          4.0720  110.3690  200.5170 O.3   3834  MOL3834    -0.4105
  24501  H          3.3270  110.1060  199.9360 H     3834  MOL3834     0.2052
  24502  H          3.7230  110.4780  201.4390 H     3834  MOL3834     0.2052
  24503  O        189.9900   60.8210   72.5940 O.3   3835  MOL3835    -0.4105
  24504  H        189.7780   60.4890   73.4920 H     3835  MOL3835     0.2052
  24505  H        190.9600   61.0280   72.5610 H     3835  MOL3835     0.2052
  24506  O        119.8230  113.0320  174.7110 O.3   3836  MOL3836    -0.4105
  24507  H        119.5860  113.2970  175.6240 H     3836  MOL3836     0.2052
  24508  H        118.9830  112.8660  174.2080 H     3836  MOL3836     0.2052
  24509  O         10.9900  115.7510  150.9300 O.3   3837  MOL3837    -0.4105
  24510  H         10.3440  116.4730  150.7810 H     3837  MOL3837     0.2052
  24511  H         11.5780  116.0110  151.6870 H     3837  MOL3837     0.2052
  24512  O         44.3200  132.8220  132.9150 O.3   3838  MOL3838    -0.4105
  24513  H         45.1070  132.4220  133.3420 H     3838  MOL3838     0.2052
  24514  H         43.8180  132.1010  132.4530 H     3838  MOL3838     0.2052
  24515  O        105.8500  194.3070  130.9860 O.3   3839  MOL3839    -0.4105
  24516  H        106.1780  193.8090  131.7640 H     3839  MOL3839     0.2052
  24517  H        105.0120  193.8780  130.6730 H     3839  MOL3839     0.2052
  24518  O         48.6150   46.9250  259.0990 O.3   3840  MOL3840    -0.4105
  24519  H         47.9280   46.2270  259.0820 H     3840  MOL3840     0.2052
  24520  H         49.4840   46.5000  259.3190 H     3840  MOL3840     0.2052
  24521  O        185.5070  132.9940  210.4370 O.3   3841  MOL3841    -0.4105
  24522  H        185.3050  132.4100  211.1980 H     3841  MOL3841     0.2052
  24523  H        185.4120  132.4620  209.6040 H     3841  MOL3841     0.2052
  24524  O        102.0230  109.2220   44.1480 O.3   3842  MOL3842    -0.4105
  24525  H        102.3590  110.0220   43.6920 H     3842  MOL3842     0.2052
  24526  H        101.0350  109.2850   44.1990 H     3842  MOL3842     0.2052
  24527  O          6.7830   86.3020   18.3330 O.3   3843  MOL3843    -0.4105
  24528  H          7.2020   87.1270   18.6580 H     3843  MOL3843     0.2052
  24529  H          6.2400   86.5240   17.5330 H     3843  MOL3843     0.2052
  24530  O         40.1660  123.6440  190.3110 O.3   3844  MOL3844    -0.4105
  24531  H         39.4620  124.3000  190.1260 H     3844  MOL3844     0.2052
  24532  H         40.9070  123.7950  189.6690 H     3844  MOL3844     0.2052
  24533  O        158.5360   15.9610   32.2750 O.3   3845  MOL3845    -0.4105
  24534  H        159.3840   15.7790   32.7330 H     3845  MOL3845     0.2052
  24535  H        157.7970   15.8080   32.9190 H     3845  MOL3845     0.2052
  24536  O         29.5600   82.8850  148.4000 O.3   3846  MOL3846    -0.4105
  24537  H         30.0220   82.2360  147.8290 H     3846  MOL3846     0.2052
  24538  H         28.5830   82.7880  148.2530 H     3846  MOL3846     0.2052
  24539  O        115.3470   82.6890  177.1450 O.3   3847  MOL3847    -0.4105
  24540  H        116.2630   83.0050  177.2950 H     3847  MOL3847     0.2052
  24541  H        114.9330   82.5060  178.0280 H     3847  MOL3847     0.2052
  24542  O        185.4680  144.0970  245.2480 O.3   3848  MOL3848    -0.4105
  24543  H        185.5570  143.2600  245.7510 H     3848  MOL3848     0.2052
  24544  H        185.9930  144.0120  244.4110 H     3848  MOL3848     0.2052
  24545  O         99.8470   87.5330  273.4010 O.3   3849  MOL3849    -0.4105
  24546  H        100.1870   87.9030  272.5600 H     3849  MOL3849     0.2052
  24547  H         98.8600   87.6420  273.4120 H     3849  MOL3849     0.2052
  24548  O        185.6340   17.5650  276.7400 O.3   3850  MOL3850    -0.4105
  24549  H        185.4390   17.4670  275.7840 H     3850  MOL3850     0.2052
  24550  H        186.4640   17.0590  276.9400 H     3850  MOL3850     0.2052
  24551  O        115.7210    3.1390  157.6710 O.3   3851  MOL3851    -0.4105
  24552  H        115.2780    3.7220  158.3220 H     3851  MOL3851     0.2052
  24553  H        115.6530    2.2040  157.9960 H     3851  MOL3851     0.2052
  24554  O        177.5360  154.3830  124.8420 O.3   3852  MOL3852    -0.4105
  24555  H        177.6660  153.4120  124.8700 H     3852  MOL3852     0.2052
  24556  H        176.5640  154.5630  124.7540 H     3852  MOL3852     0.2052
  24557  O         77.7350  157.9270   60.9620 O.3   3853  MOL3853    -0.4105
  24558  H         78.2580  158.3750   60.2650 H     3853  MOL3853     0.2052
  24559  H         77.1320  158.5960   61.3780 H     3853  MOL3853     0.2052
  24560  O        154.8970   56.6190  248.6130 O.3   3854  MOL3854    -0.4105
  24561  H        155.8350   56.5350  248.8850 H     3854  MOL3854     0.2052
  24562  H        154.3800   55.8950  249.0530 H     3854  MOL3854     0.2052
  24563  O         52.8730  149.2870  207.0230 O.3   3855  MOL3855    -0.4105
  24564  H         52.3790  149.9370  207.5640 H     3855  MOL3855     0.2052
  24565  H         53.6450  148.9620  207.5560 H     3855  MOL3855     0.2052
  24566  O        189.2180  146.5770  267.2000 O.3   3856  MOL3856    -0.4105
  24567  H        190.1860  146.7210  267.2580 H     3856  MOL3856     0.2052
  24568  H        188.7870  147.0660  267.9480 H     3856  MOL3856     0.2052
  24569  O         14.7230   48.4970   91.0270 O.3   3857  MOL3857    -0.4105
  24570  H         14.0540   49.2120   90.9860 H     3857  MOL3857     0.2052
  24571  H         15.6180   48.9130   91.1220 H     3857  MOL3857     0.2052
  24572  O         78.9100   25.5980  188.7120 O.3   3858  MOL3858    -0.4105
  24573  H         79.7870   25.9710  188.4830 H     3858  MOL3858     0.2052
  24574  H         79.0450   24.6750  189.0520 H     3858  MOL3858     0.2052
  24575  O         23.1000   48.4880   68.0320 O.3   3859  MOL3859    -0.4105
  24576  H         22.3840   47.9940   68.4850 H     3859  MOL3859     0.2052
  24577  H         22.6850   49.2080   67.4900 H     3859  MOL3859     0.2052
  24578  O        191.7030  119.7160   35.6070 O.3   3860  MOL3860    -0.4105
  24579  H        192.5940  119.3610   35.8100 H     3860  MOL3860     0.2052
  24580  H        191.6710  120.6620   35.9060 H     3860  MOL3860     0.2052
  24581  O        123.8720   94.2750  217.0680 O.3   3861  MOL3861    -0.4105
  24582  H        124.7550   94.3660  217.4850 H     3861  MOL3861     0.2052
  24583  H        123.4150   93.4940  217.4750 H     3861  MOL3861     0.2052
  24584  O        109.9310  140.7780  199.9810 O.3   3862  MOL3862    -0.4105
  24585  H        109.7460  139.8830  199.6280 H     3862  MOL3862     0.2052
  24586  H        110.9150  140.9050  200.0070 H     3862  MOL3862     0.2052
  24587  O        146.1890  148.6780   40.2760 O.3   3863  MOL3863    -0.4105
  24588  H        145.9270  149.3700   40.9180 H     3863  MOL3863     0.2052
  24589  H        145.3650  148.2860   39.8880 H     3863  MOL3863     0.2052
  24590  O        175.0830  174.6250  122.7080 O.3   3864  MOL3864    -0.4105
  24591  H        174.5090  173.8410  122.8320 H     3864  MOL3864     0.2052
  24592  H        174.5060  175.4320  122.6830 H     3864  MOL3864     0.2052
  24593  O         38.7450   75.4450  106.2120 O.3   3865  MOL3865    -0.4105
  24594  H         38.1170   75.3600  106.9590 H     3865  MOL3865     0.2052
  24595  H         39.6080   75.7810  106.5680 H     3865  MOL3865     0.2052
  24596  O         35.6110   35.3820   66.9890 O.3   3866  MOL3866    -0.4105
  24597  H         36.4250   35.4530   66.4470 H     3866  MOL3866     0.2052
  24598  H         35.3400   34.4280   67.0190 H     3866  MOL3866     0.2052
  24599  O         35.3530  149.8600  240.4900 O.3   3867  MOL3867    -0.4105
  24600  H         34.7100  150.5940  240.3960 H     3867  MOL3867     0.2052
  24601  H         34.8480  149.0300  240.6960 H     3867  MOL3867     0.2052
  24602  O         72.3080  136.3730   65.8520 O.3   3868  MOL3868    -0.4105
  24603  H         71.7230  137.1560   65.7810 H     3868  MOL3868     0.2052
  24604  H         71.7620  135.5620   65.6850 H     3868  MOL3868     0.2052
  24605  O         24.3530   60.0610  172.2660 O.3   3869  MOL3869    -0.4105
  24606  H         23.5440   60.3260  171.7800 H     3869  MOL3869     0.2052
  24607  H         24.9010   59.4880  171.6690 H     3869  MOL3869     0.2052
  24608  O         69.7480   75.9380  166.4710 O.3   3870  MOL3870    -0.4105
  24609  H         69.1320   75.1860  166.3490 H     3870  MOL3870     0.2052
  24610  H         69.2130   76.7500  166.6660 H     3870  MOL3870     0.2052
  24611  O         91.8720    3.6470  274.9170 O.3   3871  MOL3871    -0.4105
  24612  H         92.4100    4.2660  274.3800 H     3871  MOL3871     0.2052
  24613  H         91.9510    3.9130  275.8690 H     3871  MOL3871     0.2052
  24614  O         31.3040  199.3700   28.4290 O.3   3872  MOL3872    -0.4105
  24615  H         31.9250  198.9970   27.7690 H     3872  MOL3872     0.2052
  24616  H         31.0170  198.6370   29.0340 H     3872  MOL3872     0.2052
  24617  O         98.1770   14.3970  290.5560 O.3   3873  MOL3873    -0.4105
  24618  H         98.4250   15.2960  290.2560 H     3873  MOL3873     0.2052
  24619  H         97.2940   14.1720  290.1650 H     3873  MOL3873     0.2052
  24620  O        161.8290  175.1330   21.2270 O.3   3874  MOL3874    -0.4105
  24621  H        161.7330  174.6350   20.3880 H     3874  MOL3874     0.2052
  24622  H        160.9210  175.3350   21.5730 H     3874  MOL3874     0.2052
  24623  O         42.3100   13.2410   64.8320 O.3   3875  MOL3875    -0.4105
  24624  H         41.5580   12.8360   65.3120 H     3875  MOL3875     0.2052
  24625  H         43.1410   12.7700   65.1010 H     3875  MOL3875     0.2052
  24626  O        130.5010   76.8430   39.5310 O.3   3876  MOL3876    -0.4105
  24627  H        131.1360   76.1290   39.3140 H     3876  MOL3876     0.2052
  24628  H        131.0180   77.6540   39.7770 H     3876  MOL3876     0.2052
  24629  O        189.3700   13.6700  222.7460 O.3   3877  MOL3877    -0.4105
  24630  H        189.6110   14.5910  222.9800 H     3877  MOL3877     0.2052
  24631  H        189.8680   13.0570  223.3470 H     3877  MOL3877     0.2052
  24632  O        185.0920    9.1130  176.2410 O.3   3878  MOL3878    -0.4105
  24633  H        185.4850    8.5470  175.5450 H     3878  MOL3878     0.2052
  24634  H        184.4850    8.5520  176.7910 H     3878  MOL3878     0.2052
  24635  O         72.1150  190.9700   50.0910 O.3   3879  MOL3879    -0.4105
  24636  H         71.7130  191.7920   50.4410 H     3879  MOL3879     0.2052
  24637  H         71.4320  190.2510   50.1250 H     3879  MOL3879     0.2052
  24638  O          8.0550   85.2190   83.5970 O.3   3880  MOL3880    -0.4105
  24639  H          8.8140   85.1610   82.9790 H     3880  MOL3880     0.2052
  24640  H          8.3990   85.4980   84.4850 H     3880  MOL3880     0.2052
  24641  O         43.1470  192.4040   86.0240 O.3   3881  MOL3881    -0.4105
  24642  H         43.5310  191.7020   86.5910 H     3881  MOL3881     0.2052
  24643  H         42.3270  192.0450   85.5980 H     3881  MOL3881     0.2052
  24644  O        175.8840  180.3330  219.2560 O.3   3882  MOL3882    -0.4105
  24645  H        176.1430  179.3880  219.2320 H     3882  MOL3882     0.2052
  24646  H        174.9520  180.3910  219.5900 H     3882  MOL3882     0.2052
  24647  O         39.0390  153.1650   18.7420 O.3   3883  MOL3883    -0.4105
  24648  H         38.3780  152.8270   18.1030 H     3883  MOL3883     0.2052
  24649  H         39.4960  152.3880   19.1570 H     3883  MOL3883     0.2052
  24650  O         39.7250    6.9430  133.1470 O.3   3884  MOL3884    -0.4105
  24651  H         40.5760    6.6630  133.5460 H     3884  MOL3884     0.2052
  24652  H         39.5180    7.8580  133.4680 H     3884  MOL3884     0.2052
  24653  O         74.7750   28.8880  186.9620 O.3   3885  MOL3885    -0.4105
  24654  H         75.4500   28.1900  186.8330 H     3885  MOL3885     0.2052
  24655  H         75.2440   29.7510  187.1030 H     3885  MOL3885     0.2052
  24656  O         73.6560  153.3600  225.0970 O.3   3886  MOL3886    -0.4105
  24657  H         74.4030  153.0890  225.6700 H     3886  MOL3886     0.2052
  24658  H         72.8980  153.6240  225.6790 H     3886  MOL3886     0.2052
  24659  O         67.2670  150.7290   79.2070 O.3   3887  MOL3887    -0.4105
  24660  H         66.6370  150.0680   78.8490 H     3887  MOL3887     0.2052
  24661  H         67.2840  151.5060   78.5910 H     3887  MOL3887     0.2052
  24662  O         25.7440   58.0380  209.6940 O.3   3888  MOL3888    -0.4105
  24663  H         25.7030   57.3260  210.3670 H     3888  MOL3888     0.2052
  24664  H         24.8630   58.4940  209.6710 H     3888  MOL3888     0.2052
  24665  O        166.3690   80.1820  231.1330 O.3   3889  MOL3889    -0.4105
  24666  H        166.4370   79.8440  232.0500 H     3889  MOL3889     0.2052
  24667  H        167.2770   80.1820  230.7340 H     3889  MOL3889     0.2052
  24668  O         35.2050  150.1170  252.9180 O.3   3890  MOL3890    -0.4105
  24669  H         35.5110  149.2120  253.1350 H     3890  MOL3890     0.2052
  24670  H         34.2510  150.0670  252.6500 H     3890  MOL3890     0.2052
  24671  O         75.4950    8.2640   67.4520 O.3   3891  MOL3891    -0.4105
  24672  H         75.4150    8.6840   68.3340 H     3891  MOL3891     0.2052
  24673  H         75.2580    8.9380   66.7640 H     3891  MOL3891     0.2052
  24674  O         13.7050  156.9250  216.8790 O.3   3892  MOL3892    -0.4105
  24675  H         13.1980  156.6030  217.6530 H     3892  MOL3892     0.2052
  24676  H         14.4570  157.4810  217.2090 H     3892  MOL3892     0.2052
  24677  O         60.5510  196.5280  107.6330 O.3   3893  MOL3893    -0.4105
  24678  H         59.6400  196.8440  107.4620 H     3893  MOL3893     0.2052
  24679  H         61.1700  197.0300  107.0420 H     3893  MOL3893     0.2052
  24680  O        171.7680  105.0640  230.3060 O.3   3894  MOL3894    -0.4105
  24681  H        171.0190  105.1360  230.9340 H     3894  MOL3894     0.2052
  24682  H        171.4870  104.4800  229.5550 H     3894  MOL3894     0.2052
  24683  O         15.1570  190.0390  208.0030 O.3   3895  MOL3895    -0.4105
  24684  H         14.5640  189.8510  207.2460 H     3895  MOL3895     0.2052
  24685  H         15.9680  189.4750  207.9100 H     3895  MOL3895     0.2052
  24686  O        146.6430   18.5970  157.1790 O.3   3896  MOL3896    -0.4105
  24687  H        147.4810   18.3120  157.5990 H     3896  MOL3896     0.2052
  24688  H        146.7720   18.5900  156.1950 H     3896  MOL3896     0.2052
  24689  O        112.8000  166.6020  281.4940 O.3   3897  MOL3897    -0.4105
  24690  H        113.6430  166.1310  281.3220 H     3897  MOL3897     0.2052
  24691  H        112.9210  167.5550  281.2480 H     3897  MOL3897     0.2052
  24692  O          8.3880   62.6460  259.3180 O.3   3898  MOL3898    -0.4105
  24693  H          9.0020   61.8840  259.3830 H     3898  MOL3898     0.2052
  24694  H          8.9290   63.4720  259.2210 H     3898  MOL3898     0.2052
  24695  O         72.9280  157.2050  139.6230 O.3   3899  MOL3899    -0.4105
  24696  H         72.9950  157.0120  138.6640 H     3899  MOL3899     0.2052
  24697  H         73.5690  156.6200  140.1030 H     3899  MOL3899     0.2052
  24698  O          9.2480  118.5310  267.9600 O.3   3900  MOL3900    -0.4105
  24699  H         10.1260  118.6220  267.5360 H     3900  MOL3900     0.2052
  24700  H          8.7370  117.8340  267.4720 H     3900  MOL3900     0.2052
  24701  O         90.1470  131.5860   25.4320 O.3   3901  MOL3901    -0.4105
  24702  H         90.8270  131.4370   26.1230 H     3901  MOL3901     0.2052
  24703  H         90.5660  131.4310   24.5460 H     3901  MOL3901     0.2052
  24704  O         77.0860  137.4400   53.0810 O.3   3902  MOL3902    -0.4105
  24705  H         76.7360  137.8180   52.2480 H     3902  MOL3902     0.2052
  24706  H         77.5850  136.6110   52.8600 H     3902  MOL3902     0.2052
  24707  O         62.3740    2.8690  128.5620 O.3   3903  MOL3903    -0.4105
  24708  H         61.4620    2.5200  128.4780 H     3903  MOL3903     0.2052
  24709  H         62.3470    3.8480  128.4000 H     3903  MOL3903     0.2052
  24710  O         91.9620   27.3850  123.0450 O.3   3904  MOL3904    -0.4105
  24711  H         92.2880   27.3510  123.9690 H     3904  MOL3904     0.2052
  24712  H         92.7100   27.6780  122.4620 H     3904  MOL3904     0.2052
  24713  O         62.9230  154.4880   16.6520 O.3   3905  MOL3905    -0.4105
  24714  H         62.7040  154.4460   17.6060 H     3905  MOL3905     0.2052
  24715  H         62.2140  154.0090   16.1490 H     3905  MOL3905     0.2052
  24716  O        107.6130   12.0810  171.8970 O.3   3906  MOL3906    -0.4105
  24717  H        108.3590   11.8930  171.2900 H     3906  MOL3906     0.2052
  24718  H        107.7560   12.9780  172.2970 H     3906  MOL3906     0.2052
  24719  O        155.5630  141.4100  180.7780 O.3   3907  MOL3907    -0.4105
  24720  H        155.2960  142.3480  180.6820 H     3907  MOL3907     0.2052
  24721  H        156.2670  141.2170  180.1060 H     3907  MOL3907     0.2052
  24722  O        164.8820  144.3610   92.9760 O.3   3908  MOL3908    -0.4105
  24723  H        164.0480  144.8730   92.9460 H     3908  MOL3908     0.2052
  24724  H        165.5780  144.8710   92.4860 H     3908  MOL3908     0.2052
  24725  O         70.4970  132.7310   42.2640 O.3   3909  MOL3909    -0.4105
  24726  H         69.8010  132.2400   41.7800 H     3909  MOL3909     0.2052
  24727  H         71.2870  132.8170   41.6700 H     3909  MOL3909     0.2052
  24728  O          4.2320  152.3510  182.5960 O.3   3910  MOL3910    -0.4105
  24729  H          3.6230  152.7480  181.9390 H     3910  MOL3910     0.2052
  24730  H          3.7990  152.3960  183.4880 H     3910  MOL3910     0.2052
  24731  O         73.3090   18.7940  197.4770 O.3   3911  MOL3911    -0.4105
  24732  H         73.6370   17.9400  197.1250 H     3911  MOL3911     0.2052
  24733  H         73.6650   19.5230  196.9050 H     3911  MOL3911     0.2052
  24734  O        167.3940  194.7120  261.0040 O.3   3912  MOL3912    -0.4105
  24735  H        167.8810  195.2080  260.3130 H     3912  MOL3912     0.2052
  24736  H        166.4220  194.8350  260.8480 H     3912  MOL3912     0.2052
  24737  O        136.4820   64.2630  220.0820 O.3   3913  MOL3913    -0.4105
  24738  H        135.6710   63.7150  220.0260 H     3913  MOL3913     0.2052
  24739  H        137.0510   64.0550  219.2960 H     3913  MOL3913     0.2052
  24740  O        170.9990  198.5290  297.9490 O.3   3914  MOL3914    -0.4105
  24741  H        171.8370  198.1510  297.6080 H     3914  MOL3914     0.2052
  24742  H        171.0800  199.5180  297.9430 H     3914  MOL3914     0.2052
  24743  O        171.9460  133.0260  211.6020 O.3   3915  MOL3915    -0.4105
  24744  H        171.7240  133.9770  211.5140 H     3915  MOL3915     0.2052
  24745  H        172.9340  132.9400  211.6340 H     3915  MOL3915     0.2052
  24746  O        143.2960  182.3290  160.6660 O.3   3916  MOL3916    -0.4105
  24747  H        143.4950  181.9100  159.8030 H     3916  MOL3916     0.2052
  24748  H        142.3120  182.4310  160.7410 H     3916  MOL3916     0.2052
  24749  O         59.4910  169.5320  144.3320 O.3   3917  MOL3917    -0.4105
  24750  H         60.0340  168.9010  143.8160 H     3917  MOL3917     0.2052
  24751  H         58.8290  169.0140  144.8590 H     3917  MOL3917     0.2052
  24752  O        122.6950   71.0580  219.5140 O.3   3918  MOL3918    -0.4105
  24753  H        122.3470   70.1430  219.4600 H     3918  MOL3918     0.2052
  24754  H        123.2700   71.1240  220.3210 H     3918  MOL3918     0.2052
  24755  O         85.0800   53.6960  288.1830 O.3   3919  MOL3919    -0.4105
  24756  H         85.2230   52.7330  288.2980 H     3919  MOL3919     0.2052
  24757  H         84.1560   53.9090  288.4760 H     3919  MOL3919     0.2052
  24758  O        198.5420   53.6270  195.9970 O.3   3920  MOL3920    -0.4105
  24759  H        199.4950   53.4050  195.9430 H     3920  MOL3920     0.2052
  24760  H        198.4540   54.6150  196.0170 H     3920  MOL3920     0.2052
  24761  O        172.4680  164.4450  203.8120 O.3   3921  MOL3921    -0.4105
  24762  H        171.8400  163.6920  203.8150 H     3921  MOL3921     0.2052
  24763  H        173.3890  164.0810  203.7500 H     3921  MOL3921     0.2052
  24764  O         90.3630  177.4030  157.8170 O.3   3922  MOL3922    -0.4105
  24765  H         90.9820  178.1590  157.8950 H     3922  MOL3922     0.2052
  24766  H         90.8520  176.5750  158.0610 H     3922  MOL3922     0.2052
  24767  O        145.1740   57.4000  222.3700 O.3   3923  MOL3923    -0.4105
  24768  H        145.3050   56.5630  222.8630 H     3923  MOL3923     0.2052
  24769  H        146.0500   57.8600  222.2990 H     3923  MOL3923     0.2052
  24770  O         36.3700  137.2200   90.5470 O.3   3924  MOL3924    -0.4105
  24771  H         35.7610  136.5300   90.2090 H     3924  MOL3924     0.2052
  24772  H         37.0990  136.7720   91.0490 H     3924  MOL3924     0.2052
  24773  O         26.6860  169.9310  287.5200 O.3   3925  MOL3925    -0.4105
  24774  H         26.9040  170.8620  287.3050 H     3925  MOL3925     0.2052
  24775  H         27.5350  169.4400  287.6700 H     3925  MOL3925     0.2052
  24776  O         57.8360   17.2980   63.0280 O.3   3926  MOL3926    -0.4105
  24777  H         58.6600   17.7590   62.7670 H     3926  MOL3926     0.2052
  24778  H         58.0840   16.4360   63.4530 H     3926  MOL3926     0.2052
  24779  O        135.2380  164.3790  146.8140 O.3   3927  MOL3927    -0.4105
  24780  H        134.6240  165.1420  146.8400 H     3927  MOL3927     0.2052
  24781  H        136.1640  164.7290  146.7470 H     3927  MOL3927     0.2052
  24782  O        182.7970   58.9200   24.7170 O.3   3928  MOL3928    -0.4105
  24783  H        183.4550   58.9240   25.4440 H     3928  MOL3928     0.2052
  24784  H        183.0110   59.6660   24.1000 H     3928  MOL3928     0.2052
  24785  O        100.3050  124.1010    7.9040 O.3   3929  MOL3929    -0.4105
  24786  H         99.3410  123.9340    7.9720 H     3929  MOL3929     0.2052
  24787  H        100.4470  125.0820    7.8580 H     3929  MOL3929     0.2052
  24788  O         10.5830  157.4220  276.4660 O.3   3930  MOL3930    -0.4105
  24789  H         10.5870  157.3500  277.4430 H     3930  MOL3930     0.2052
  24790  H          9.7690  156.9700  276.1250 H     3930  MOL3930     0.2052
  24791  O        182.8340  156.2540  118.1430 O.3   3931  MOL3931    -0.4105
  24792  H        182.4530  157.1220  118.3920 H     3931  MOL3931     0.2052
  24793  H        183.4750  156.3970  117.4000 H     3931  MOL3931     0.2052
  24794  O        116.1040   26.2320   81.7420 O.3   3932  MOL3932    -0.4105
  24795  H        115.2100   25.8580   81.8890 H     3932  MOL3932     0.2052
  24796  H        116.7730   25.5390   81.9810 H     3932  MOL3932     0.2052
  24797  O         86.5330    7.3550  225.4560 O.3   3933  MOL3933    -0.4105
  24798  H         85.7110    7.4050  224.9250 H     3933  MOL3933     0.2052
  24799  H         86.4790    6.5520  226.0370 H     3933  MOL3933     0.2052
  24800  O         96.4980  106.9820  225.7890 O.3   3934  MOL3934    -0.4105
  24801  H         97.4490  107.1070  225.5870 H     3934  MOL3934     0.2052
  24802  H         96.0750  106.5210  225.0180 H     3934  MOL3934     0.2052
  24803  O        180.5630  123.2440   20.3050 O.3   3935  MOL3935    -0.4105
  24804  H        179.7330  122.7220   20.3170 H     3935  MOL3935     0.2052
  24805  H        181.3190  122.6190   20.1550 H     3935  MOL3935     0.2052
  24806  O        151.0700  150.6440  182.3930 O.3   3936  MOL3936    -0.4105
  24807  H        151.1970  150.6970  181.4220 H     3936  MOL3936     0.2052
  24808  H        151.6240  149.8970  182.7380 H     3936  MOL3936     0.2052
  24809  O         24.3360  158.1470  292.0560 O.3   3937  MOL3937    -0.4105
  24810  H         24.9570  158.5400  291.4080 H     3937  MOL3937     0.2052
  24811  H         24.5470  158.5170  292.9520 H     3937  MOL3937     0.2052
  24812  O        136.8910   15.5870  296.3250 O.3   3938  MOL3938    -0.4105
  24813  H        137.2820   16.4840  296.2590 H     3938  MOL3938     0.2052
  24814  H        135.9030   15.6800  296.3440 H     3938  MOL3938     0.2052
  24815  O        146.9220   26.0230  203.2620 O.3   3939  MOL3939    -0.4105
  24816  H        147.4820   25.4990  203.8720 H     3939  MOL3939     0.2052
  24817  H        146.3200   26.5940  203.8060 H     3939  MOL3939     0.2052
  24818  O        166.5070   85.7810  176.2490 O.3   3940  MOL3940    -0.4105
  24819  H        165.5620   85.5350  176.1690 H     3940  MOL3940     0.2052
  24820  H        166.5900   86.4680  176.9600 H     3940  MOL3940     0.2052
  24821  O        100.7080  161.4050  217.4580 O.3   3941  MOL3941    -0.4105
  24822  H        101.2510  161.9250  216.8300 H     3941  MOL3941     0.2052
  24823  H        100.7030  160.4600  217.1560 H     3941  MOL3941     0.2052
  24824  O        179.6250  126.8200  151.2720 O.3   3942  MOL3942    -0.4105
  24825  H        178.6880  127.1070  151.2650 H     3942  MOL3942     0.2052
  24826  H        180.1980  127.6290  151.2530 H     3942  MOL3942     0.2052
  24827  O        125.9310  151.3040  102.2780 O.3   3943  MOL3943    -0.4105
  24828  H        125.5580  150.4790  101.9030 H     3943  MOL3943     0.2052
  24829  H        126.7170  151.0640  102.8340 H     3943  MOL3943     0.2052
  24830  O        183.2120  138.1870   61.2570 O.3   3944  MOL3944    -0.4105
  24831  H        184.1860  138.2870   61.2980 H     3944  MOL3944     0.2052
  24832  H        182.8070  139.0930   61.2710 H     3944  MOL3944     0.2052
  24833  O         27.6500  163.1070   66.2600 O.3   3945  MOL3945    -0.4105
  24834  H         26.7570  162.9490   65.8880 H     3945  MOL3945     0.2052
  24835  H         28.2780  163.2580   65.5070 H     3945  MOL3945     0.2052
  24836  O        109.8910  197.5110   97.6620 O.3   3946  MOL3946    -0.4105
  24837  H        109.3930  196.6680   97.7110 H     3946  MOL3946     0.2052
  24838  H        110.8510  197.2970   97.5310 H     3946  MOL3946     0.2052
  24839  O        122.6590  193.3710  221.3310 O.3   3947  MOL3947    -0.4105
  24840  H        121.9430  192.9740  221.8700 H     3947  MOL3947     0.2052
  24841  H        122.2880  193.5940  220.4380 H     3947  MOL3947     0.2052
  24842  O         88.8930   14.7880  161.1560 O.3   3948  MOL3948    -0.4105
  24843  H         89.6060   14.8070  160.4830 H     3948  MOL3948     0.2052
  24844  H         88.4410   13.9060  161.1050 H     3948  MOL3948     0.2052
  24845  O         46.9000    4.5800  119.0240 O.3   3949  MOL3949    -0.4105
  24846  H         46.0040    4.9020  119.2550 H     3949  MOL3949     0.2052
  24847  H         46.9870    3.6460  119.3470 H     3949  MOL3949     0.2052
  24848  O        176.1410   90.8700  137.1940 O.3   3950  MOL3950    -0.4105
  24849  H        176.8840   90.3900  137.6170 H     3950  MOL3950     0.2052
  24850  H        176.2280   90.7730  136.2100 H     3950  MOL3950     0.2052
  24851  O        199.7930  130.9290  153.2680 O.3   3951  MOL3951    -0.4105
  24852  H        199.7270  131.8850  153.0670 H     3951  MOL3951     0.2052
  24853  H        199.0020  130.4740  152.8780 H     3951  MOL3951     0.2052
  24854  O         86.1150  196.0730  197.3330 O.3   3952  MOL3952    -0.4105
  24855  H         85.3580  196.6960  197.3380 H     3952  MOL3952     0.2052
  24856  H         85.7570  195.1480  197.3330 H     3952  MOL3952     0.2052
  24857  O        108.1410  153.0950   62.8890 O.3   3953  MOL3953    -0.4105
  24858  H        108.9620  153.2470   62.3750 H     3953  MOL3953     0.2052
  24859  H        108.0330  152.1180   63.0190 H     3953  MOL3953     0.2052
  24860  O         28.0550   42.7430  187.6060 O.3   3954  MOL3954    -0.4105
  24861  H         28.0880   43.0710  186.6830 H     3954  MOL3954     0.2052
  24862  H         28.0740   41.7520  187.5840 H     3954  MOL3954     0.2052
  24863  O        113.7440  103.5020  163.4700 O.3   3955  MOL3955    -0.4105
  24864  H        113.8510  103.2370  164.4070 H     3955  MOL3955     0.2052
  24865  H        113.7480  104.4930  163.4240 H     3955  MOL3955     0.2052
  24866  O         35.7230  118.8800   73.2350 O.3   3956  MOL3956    -0.4105
  24867  H         35.2210  119.5590   73.7330 H     3956  MOL3956     0.2052
  24868  H         36.6320  119.2360   73.0550 H     3956  MOL3956     0.2052
  24869  O        189.6690   41.5950   46.1820 O.3   3957  MOL3957    -0.4105
  24870  H        189.2800   42.2920   46.7500 H     3957  MOL3957     0.2052
  24871  H        188.9280   41.1170   45.7260 H     3957  MOL3957     0.2052
  24872  O        174.9690   17.0690  227.4350 O.3   3958  MOL3958    -0.4105
  24873  H        175.3280   17.9770  227.5190 H     3958  MOL3958     0.2052
  24874  H        175.7310   16.4340  227.4110 H     3958  MOL3958     0.2052
  24875  O         41.4260   77.3370  266.9910 O.3   3959  MOL3959    -0.4105
  24876  H         41.0460   76.7480  266.3060 H     3959  MOL3959     0.2052
  24877  H         40.7450   77.4680  267.7000 H     3959  MOL3959     0.2052
  24878  O         48.0530  112.0480   65.1860 O.3   3960  MOL3960    -0.4105
  24879  H         48.2360  111.0850   65.1890 H     3960  MOL3960     0.2052
  24880  H         47.0700  112.1770   65.1420 H     3960  MOL3960     0.2052
  24881  O        113.1030   52.5900   71.3410 O.3   3961  MOL3961    -0.4105
  24882  H        112.8740   53.2120   70.6180 H     3961  MOL3961     0.2052
  24883  H        113.2410   51.6910   70.9440 H     3961  MOL3961     0.2052
  24884  O         18.3460  154.8450   80.5270 O.3   3962  MOL3962    -0.4105
  24885  H         17.5240  154.8940   79.9960 H     3962  MOL3962     0.2052
  24886  H         18.3550  153.9760   81.0060 H     3962  MOL3962     0.2052
  24887  O        105.4500  162.4910   88.3740 O.3   3963  MOL3963    -0.4105
  24888  H        105.1090  161.8240   89.0060 H     3963  MOL3963     0.2052
  24889  H        105.9960  162.0220   87.6910 H     3963  MOL3963     0.2052
  24890  O         12.5560   75.4290  170.2580 O.3   3964  MOL3964    -0.4105
  24891  H         13.1350   76.1830  170.0190 H     3964  MOL3964     0.2052
  24892  H         12.8950   75.0330  171.1020 H     3964  MOL3964     0.2052
  24893  O        159.8580   44.2020  278.5920 O.3   3965  MOL3965    -0.4105
  24894  H        159.3070   44.2550  277.7830 H     3965  MOL3965     0.2052
  24895  H        160.8110   44.2680  278.3240 H     3965  MOL3965     0.2052
  24896  O         56.3570  171.5000   67.4510 O.3   3966  MOL3966    -0.4105
  24897  H         57.0230  171.1040   68.0520 H     3966  MOL3966     0.2052
  24898  H         56.1310  170.8300   66.7550 H     3966  MOL3966     0.2052
  24899  O         83.7470  135.3790   48.3890 O.3   3967  MOL3967    -0.4105
  24900  H         83.2930  134.5520   48.1260 H     3967  MOL3967     0.2052
  24901  H         83.0570  136.0710   48.5630 H     3967  MOL3967     0.2052
  24902  O         93.7600   21.8480   18.6830 O.3   3968  MOL3968    -0.4105
  24903  H         92.8800   21.6660   18.2910 H     3968  MOL3968     0.2052
  24904  H         94.0390   21.0500   19.2040 H     3968  MOL3968     0.2052
  24905  O        197.9030  122.0370  219.2140 O.3   3969  MOL3969    -0.4105
  24906  H        197.5510  121.3530  219.8210 H     3969  MOL3969     0.2052
  24907  H        197.5200  122.9130  219.4790 H     3969  MOL3969     0.2052
  24908  O        109.2290  185.9210  209.6900 O.3   3970  MOL3970    -0.4105
  24909  H        109.3030  185.0210  209.3100 H     3970  MOL3970     0.2052
  24910  H        108.8260  185.8440  210.5940 H     3970  MOL3970     0.2052
  24911  O        144.8230   80.1790  242.4770 O.3   3971  MOL3971    -0.4105
  24912  H        144.5720   79.2380  242.3650 H     3971  MOL3971     0.2052
  24913  H        143.9940   80.7230  242.4850 H     3971  MOL3971     0.2052
  24914  O         78.1840   49.1540   74.1420 O.3   3972  MOL3972    -0.4105
  24915  H         79.1160   49.4550   74.1370 H     3972  MOL3972     0.2052
  24916  H         77.6060   49.9360   74.3390 H     3972  MOL3972     0.2052
  24917  O        123.4910   61.8840  280.5900 O.3   3973  MOL3973    -0.4105
  24918  H        123.1240   62.7520  280.3220 H     3973  MOL3973     0.2052
  24919  H        124.4760   61.9140  280.4710 H     3973  MOL3973     0.2052
  24920  O        128.0650  152.6320  218.2930 O.3   3974  MOL3974    -0.4105
  24921  H        128.0160  153.5940  218.1100 H     3974  MOL3974     0.2052
  24922  H        127.1740  152.2350  218.1120 H     3974  MOL3974     0.2052
  24923  O        152.0310  117.0180  258.8390 O.3   3975  MOL3975    -0.4105
  24924  H        152.9680  117.1010  258.5650 H     3975  MOL3975     0.2052
  24925  H        151.5390  116.5400  258.1220 H     3975  MOL3975     0.2052
  24926  O         76.9380  181.1030  149.3940 O.3   3976  MOL3976    -0.4105
  24927  H         76.5110  181.3580  148.5500 H     3976  MOL3976     0.2052
  24928  H         76.3120  180.5150  149.8920 H     3976  MOL3976     0.2052
  24929  O         62.4410   88.0950  269.2090 O.3   3977  MOL3977    -0.4105
  24930  H         62.5480   89.0560  269.0490 H     3977  MOL3977     0.2052
  24931  H         61.4820   87.9150  269.3860 H     3977  MOL3977     0.2052
  24932  O        175.8150  116.1930  147.3690 O.3   3978  MOL3978    -0.4105
  24933  H        176.2560  117.0670  147.4180 H     3978  MOL3978     0.2052
  24934  H        174.8340  116.3390  147.3920 H     3978  MOL3978     0.2052
  24935  O         64.4540    5.7740  295.3350 O.3   3979  MOL3979    -0.4105
  24936  H         64.7310    5.2100  294.5830 H     3979  MOL3979     0.2052
  24937  H         63.4650    5.8470  295.3210 H     3979  MOL3979     0.2052
  24938  O        157.7030  155.7090   74.7730 O.3   3980  MOL3980    -0.4105
  24939  H        157.4420  154.9400   74.2240 H     3980  MOL3980     0.2052
  24940  H        157.0070  155.8470   75.4660 H     3980  MOL3980     0.2052
  24941  O         40.7260  127.6510  273.2870 O.3   3981  MOL3981    -0.4105
  24942  H         40.2730  128.5200  273.2830 H     3981  MOL3981     0.2052
  24943  H         40.0350  126.9390  273.2800 H     3981  MOL3981     0.2052
  24944  O        126.3250   26.2200   28.6320 O.3   3982  MOL3982    -0.4105
  24945  H        126.5290   26.4230   29.5680 H     3982  MOL3982     0.2052
  24946  H        127.1070   26.4820   28.0800 H     3982  MOL3982     0.2052
  24947  O        111.0850   17.8590  159.4490 O.3   3983  MOL3983    -0.4105
  24948  H        110.8360   18.4610  158.7170 H     3983  MOL3983     0.2052
  24949  H        110.2580   17.4360  159.7990 H     3983  MOL3983     0.2052
  24950  O        189.1410  103.1720   63.9970 O.3   3984  MOL3984    -0.4105
  24951  H        189.7200  102.3850   64.0640 H     3984  MOL3984     0.2052
  24952  H        188.2030  102.8610   63.9070 H     3984  MOL3984     0.2052
  24953  O         25.9700  161.1720  101.6340 O.3   3985  MOL3985    -0.4105
  24954  H         26.6360  160.8820  102.2910 H     3985  MOL3985     0.2052
  24955  H         25.6250  160.3680  101.1660 H     3985  MOL3985     0.2052
  24956  O        194.5780  123.4020  138.4040 O.3   3986  MOL3986    -0.4105
  24957  H        194.4240  124.0250  137.6640 H     3986  MOL3986     0.2052
  24958  H        195.2850  122.7620  138.1300 H     3986  MOL3986     0.2052
  24959  O        194.3230   82.9170   20.8240 O.3   3987  MOL3987    -0.4105
  24960  H        194.4240   81.9830   21.1050 H     3987  MOL3987     0.2052
  24961  H        193.3610   83.0850   20.6470 H     3987  MOL3987     0.2052
  24962  O         77.3620  119.5830  213.1630 O.3   3988  MOL3988    -0.4105
  24963  H         76.7960  119.0580  212.5590 H     3988  MOL3988     0.2052
  24964  H         78.0520  118.9800  213.5440 H     3988  MOL3988     0.2052
  24965  O        170.5920  126.0920   94.4800 O.3   3989  MOL3989    -0.4105
  24966  H        171.0140  126.9510   94.6920 H     3989  MOL3989     0.2052
  24967  H        170.0040  125.8400   95.2380 H     3989  MOL3989     0.2052
  24968  O        199.8800   37.3840  180.1510 O.3   3990  MOL3990    -0.4105
  24969  H        199.2430   38.1250  180.2190 H     3990  MOL3990     0.2052
  24970  H        199.4880   36.6890  179.5610 H     3990  MOL3990     0.2052
  24971  O        156.6870   56.1500  102.3880 O.3   3991  MOL3991    -0.4105
  24972  H        157.6610   56.2430  102.3330 H     3991  MOL3991     0.2052
  24973  H        156.3780   56.5980  103.2180 H     3991  MOL3991     0.2052
  24974  O        170.4340  112.5940    1.3240 O.3   3992  MOL3992    -0.4105
  24975  H        169.9520  112.8220    2.1460 H     3992  MOL3992     0.2052
  24976  H        169.7720  112.2870    0.6510 H     3992  MOL3992     0.2052
  24977  O        120.2660  154.0170   79.0080 O.3   3993  MOL3993    -0.4105
  24978  H        121.2420  153.9370   78.9780 H     3993  MOL3993     0.2052
  24979  H        119.8920  153.1420   79.2880 H     3993  MOL3993     0.2052
  24980  O         75.1700   82.5890   65.2260 O.3   3994  MOL3994    -0.4105
  24981  H         75.8680   82.1950   65.7900 H     3994  MOL3994     0.2052
  24982  H         74.6430   81.8500   64.8240 H     3994  MOL3994     0.2052
  24983  O        178.6000  128.3830    7.6980 O.3   3995  MOL3995    -0.4105
  24984  H        179.4030  127.8510    7.8830 H     3995  MOL3995     0.2052
  24985  H        178.4690  128.4140    6.7150 H     3995  MOL3995     0.2052
  24986  O        110.8210  108.6450   61.4590 O.3   3996  MOL3996    -0.4105
  24987  H        111.2410  109.1460   60.7290 H     3996  MOL3996     0.2052
  24988  H        110.2280  109.2630   61.9600 H     3996  MOL3996     0.2052
  24989  O        165.4850  127.4410  144.1530 O.3   3997  MOL3997    -0.4105
  24990  H        166.4600  127.3710  144.2280 H     3997  MOL3997     0.2052
  24991  H        165.2320  128.3920  144.2810 H     3997  MOL3997     0.2052
  24992  O         47.0170  154.9840  225.4430 O.3   3998  MOL3998    -0.4105
  24993  H         46.2420  155.4990  225.7510 H     3998  MOL3998     0.2052
  24994  H         47.0480  154.1330  225.9520 H     3998  MOL3998     0.2052
  24995  O         89.9470  161.5120  257.5180 O.3   3999  MOL3999    -0.4105
  24996  H         89.8420  162.4800  257.6300 H     3999  MOL3999     0.2052
  24997  H         90.6290  161.3530  256.8150 H     3999  MOL3999     0.2052
  24998  O         59.9660  149.6540  269.0360 O.3   4000  MOL4000    -0.4105
  24999  H         59.8860  148.6790  269.0990 H     4000  MOL4000     0.2052
  25000  H         60.7900  149.9290  269.5160 H     4000  MOL4000     0.2052
  25001  O        175.8110  158.1740  159.3360 O.3   4001  MOL4001    -0.4105
  25002  H        175.3360  159.0130  159.1590 H     4001  MOL4001     0.2052
  25003  H        175.2410  157.6120  159.9220 H     4001  MOL4001     0.2052
  25004  O         13.5480  114.4350  256.6820 O.3   4002  MOL4002    -0.4105
  25005  H         12.9780  114.4970  257.4760 H     4002  MOL4002     0.2052
  25006  H         13.2990  115.1690  256.0630 H     4002  MOL4002     0.2052
  25007  O        130.9290   52.6230   41.2940 O.3   4003  MOL4003    -0.4105
  25008  H        130.2440   51.9580   41.0760 H     4003  MOL4003     0.2052
  25009  H        131.8160   52.2450   41.0580 H     4003  MOL4003     0.2052
  25010  O         43.5170  159.9510  199.5330 O.3   4004  MOL4004    -0.4105
  25011  H         42.6780  160.4430  199.4110 H     4004  MOL4004     0.2052
  25012  H         43.4350  159.0770  199.0700 H     4004  MOL4004     0.2052
  25013  O         97.7330  174.2800  168.2040 O.3   4005  MOL4005    -0.4105
  25014  H         97.8190  173.5360  167.5720 H     4005  MOL4005     0.2052
  25015  H         97.8500  173.9220  169.1220 H     4005  MOL4005     0.2052
  25016  O        187.6520   11.3640  135.9560 O.3   4006  MOL4006    -0.4105
  25017  H        187.5540   10.4750  135.5550 H     4006  MOL4006     0.2052
  25018  H        188.6150   11.6030  135.9490 H     4006  MOL4006     0.2052
  25019  O          6.5810  156.4530   81.6890 O.3   4007  MOL4007    -0.4105
  25020  H          5.9290  157.0960   82.0400 H     4007  MOL4007     0.2052
  25021  H          7.0830  156.8910   80.9530 H     4007  MOL4007     0.2052
  25022  O        137.0810  135.7990  171.2580 O.3   4008  MOL4008    -0.4105
  25023  H        136.2730  135.2440  171.2460 H     4008  MOL4008     0.2052
  25024  H        137.8700  135.1980  171.2730 H     4008  MOL4008     0.2052
  25025  O        165.7320  164.8000   10.6970 O.3   4009  MOL4009    -0.4105
  25026  H        164.7910  164.7950   10.4250 H     4009  MOL4009     0.2052
  25027  H        166.0230  165.7450   10.7890 H     4009  MOL4009     0.2052
  25028  O        134.2650  119.9800  229.5920 O.3   4010  MOL4010    -0.4105
  25029  H        134.4340  119.7420  230.5270 H     4010  MOL4010     0.2052
  25030  H        133.8820  120.8950  229.5680 H     4010  MOL4010     0.2052
  25031  O         56.8250   48.8220   79.0100 O.3   4011  MOL4011    -0.4105
  25032  H         57.5640   49.0230   79.6220 H     4011  MOL4011     0.2052
  25033  H         56.0840   48.4270   79.5390 H     4011  MOL4011     0.2052
  25034  O         25.2080   87.1800  298.9130 O.3   4012  MOL4012    -0.4105
  25035  H         24.5190   87.0380  299.5960 H     4012  MOL4012     0.2052
  25036  H         25.1620   86.4300  298.2650 H     4012  MOL4012     0.2052
  25037  O         14.5120  174.1500  273.2500 O.3   4013  MOL4013    -0.4105
  25038  H         15.1200  174.1010  274.0170 H     4013  MOL4013     0.2052
  25039  H         15.0500  174.0600  272.4210 H     4013  MOL4013     0.2052
  25040  O         35.2090   66.7350  281.8250 O.3   4014  MOL4014    -0.4105
  25041  H         35.7720   66.1940  282.4180 H     4014  MOL4014     0.2052
  25042  H         35.6420   67.6210  281.7100 H     4014  MOL4014     0.2052
  25043  O        164.4760   75.2550    9.7080 O.3   4015  MOL4015    -0.4105
  25044  H        163.9840   74.7770    9.0080 H     4015  MOL4015     0.2052
  25045  H        165.3780   74.8500    9.7850 H     4015  MOL4015     0.2052
  25046  O         64.6040  195.0450   76.2780 O.3   4016  MOL4016    -0.4105
  25047  H         64.7670  195.9740   76.0120 H     4016  MOL4016     0.2052
  25048  H         64.8890  194.4540   75.5330 H     4016  MOL4016     0.2052
  25049  O        178.3150  185.1400  195.7570 O.3   4017  MOL4017    -0.4105
  25050  H        178.1420  185.8650  196.3940 H     4017  MOL4017     0.2052
  25051  H        179.2440  185.2370  195.4210 H     4017  MOL4017     0.2052
  25052  O         95.5100   84.8760  289.5630 O.3   4018  MOL4018    -0.4105
  25053  H         95.8590   84.0590  289.9770 H     4018  MOL4018     0.2052
  25054  H         96.2800   85.4520  289.3160 H     4018  MOL4018     0.2052
  25055  O         35.6580  101.0510  137.9050 O.3   4019  MOL4019    -0.4105
  25056  H         36.2280  100.5390  137.2930 H     4019  MOL4019     0.2052
  25057  H         36.0860  101.0520  138.8000 H     4019  MOL4019     0.2052
  25058  O         24.2920   85.3370  165.5300 O.3   4020  MOL4020    -0.4105
  25059  H         25.2250   85.0430  165.4740 H     4020  MOL4020     0.2052
  25060  H         24.0290   85.7060  164.6470 H     4020  MOL4020     0.2052
  25061  O         44.9840  154.9890  175.2780 O.3   4021  MOL4021    -0.4105
  25062  H         44.4440  155.8000  175.3830 H     4021  MOL4021     0.2052
  25063  H         45.9420  155.2460  175.3200 H     4021  MOL4021     0.2052
  25064  O        125.7470    6.9680   35.9510 O.3   4022  MOL4022    -0.4105
  25065  H        126.4860    7.6000   36.0700 H     4022  MOL4022     0.2052
  25066  H        126.1300    6.0610   35.8270 H     4022  MOL4022     0.2052
  25067  O        161.1490  118.3050  209.6490 O.3   4023  MOL4023    -0.4105
  25068  H        162.0780  118.3480  209.9580 H     4023  MOL4023     0.2052
  25069  H        160.6280  118.9970  210.1340 H     4023  MOL4023     0.2052
  25070  O        174.7780  179.8810  275.0970 O.3   4024  MOL4024    -0.4105
  25071  H        173.8660  179.6920  274.7920 H     4024  MOL4024     0.2052
  25072  H        175.1570  180.5930  274.5190 H     4024  MOL4024     0.2052
  25073  O        196.1780  147.8240   57.1060 O.3   4025  MOL4025    -0.4105
  25074  H        197.0930  147.4810   57.0300 H     4025  MOL4025     0.2052
  25075  H        196.2210  148.8140   57.1590 H     4025  MOL4025     0.2052
  25076  O         13.6310  131.7880  147.3020 O.3   4026  MOL4026    -0.4105
  25077  H         13.3370  130.8570  147.2220 H     4026  MOL4026     0.2052
  25078  H         14.5830  131.8390  147.0240 H     4026  MOL4026     0.2052
  25079  O        162.3420   41.0390   83.9030 O.3   4027  MOL4027    -0.4105
  25080  H        162.8310   40.2060   84.0680 H     4027  MOL4027     0.2052
  25081  H        162.9240   41.6400   83.3680 H     4027  MOL4027     0.2052
  25082  O         31.4720    8.8230   69.3860 O.3   4028  MOL4028    -0.4105
  25083  H         30.6540    9.3620   69.4000 H     4028  MOL4028     0.2052
  25084  H         32.2500    9.4390   69.4080 H     4028  MOL4028     0.2052
  25085  O        198.7300  172.3470   83.1280 O.3   4029  MOL4029    -0.4105
  25086  H        199.6960  172.4650   83.0120 H     4029  MOL4029     0.2052
  25087  H        198.5350  172.3260   84.1010 H     4029  MOL4029     0.2052
  25088  O         35.0860   39.7860  229.3400 O.3   4030  MOL4030    -0.4105
  25089  H         35.5700   38.9390  229.2450 H     4030  MOL4030     0.2052
  25090  H         34.1860   39.6770  228.9380 H     4030  MOL4030     0.2052
  25091  O          3.7930  128.2850  123.5220 O.3   4031  MOL4031    -0.4105
  25092  H          4.4100  129.0460  123.5370 H     4031  MOL4031     0.2052
  25093  H          2.8660  128.6370  123.5090 H     4031  MOL4031     0.2052
  25094  O        159.5450  198.5870  242.6510 O.3   4032  MOL4032    -0.4105
  25095  H        160.4130  198.6750  243.0980 H     4032  MOL4032     0.2052
  25096  H        159.5730  197.7810  242.0740 H     4032  MOL4032     0.2052
  25097  O        129.1510    7.8250  153.4530 O.3   4033  MOL4033    -0.4105
  25098  H        128.5860    7.0940  153.7790 H     4033  MOL4033     0.2052
  25099  H        129.1740    8.5340  154.1470 H     4033  MOL4033     0.2052
  25100  O         44.4580    2.3860  157.6040 O.3   4034  MOL4034    -0.4105
  25101  H         44.6040    2.7660  156.7130 H     4034  MOL4034     0.2052
  25102  H         43.6270    2.7800  157.9770 H     4034  MOL4034     0.2052
  25103  O          8.6920   30.3750  188.8520 O.3   4035  MOL4035    -0.4105
  25104  H          8.2910   31.1940  189.2120 H     4035  MOL4035     0.2052
  25105  H          7.9630   29.8020  188.4990 H     4035  MOL4035     0.2052
  25106  O        189.3670    2.3570  266.3870 O.3   4036  MOL4036    -0.4105
  25107  H        190.2780    2.0770  266.6160 H     4036  MOL4036     0.2052
  25108  H        189.4250    3.0540  265.6830 H     4036  MOL4036     0.2052
  25109  O         79.8030  133.6200  259.8590 O.3   4037  MOL4037    -0.4105
  25110  H         78.8450  133.5160  259.6840 H     4037  MOL4037     0.2052
  25111  H         80.0790  134.5220  259.5500 H     4037  MOL4037     0.2052
  25112  O        138.3130  198.8510   93.8980 O.3   4038  MOL4038    -0.4105
  25113  H        137.8510  199.5570   93.4000 H     4038  MOL4038     0.2052
  25114  H        139.2530  199.1360   94.0420 H     4038  MOL4038     0.2052
  25115  O         39.1970  190.8290  260.9240 O.3   4039  MOL4039    -0.4105
  25116  H         39.6710  190.6390  261.7600 H     4039  MOL4039     0.2052
  25117  H         39.1970  190.0040  260.3720 H     4039  MOL4039     0.2052
  25118  O        164.7810  100.5230  237.2260 O.3   4040  MOL4040    -0.4105
  25119  H        165.4990   99.9750  236.8440 H     4040  MOL4040     0.2052
  25120  H        164.6830  101.3380  236.6690 H     4040  MOL4040     0.2052
  25121  O         93.3110  193.5690  255.0400 O.3   4041  MOL4041    -0.4105
  25122  H         93.9850  194.2790  254.9840 H     4041  MOL4041     0.2052
  25123  H         93.6420  192.7870  254.5270 H     4041  MOL4041     0.2052
  25124  O         97.7850   86.6470    7.8990 O.3   4042  MOL4042    -0.4105
  25125  H         97.1220   86.8310    8.5980 H     4042  MOL4042     0.2052
  25126  H         97.9400   85.6680    7.8690 H     4042  MOL4042     0.2052
  25127  O        129.7590   95.6610   63.1980 O.3   4043  MOL4043    -0.4105
  25128  H        130.6250   96.1200   63.2060 H     4043  MOL4043     0.2052
  25129  H        129.7480   95.0320   62.4320 H     4043  MOL4043     0.2052
  25130  O        150.0610   16.9380  178.8800 O.3   4044  MOL4044    -0.4105
  25131  H        150.9190   16.4760  178.9820 H     4044  MOL4044     0.2052
  25132  H        149.3460   16.2520  178.8140 H     4044  MOL4044     0.2052
  25133  O          0.2840  164.1990  202.6280 O.3   4045  MOL4045    -0.4105
  25134  H          0.9510  164.8360  202.2960 H     4045  MOL4045     0.2052
  25135  H          0.7590  163.3840  202.9360 H     4045  MOL4045     0.2052
  25136  O          1.8350  166.1730   43.5420 O.3   4046  MOL4046    -0.4105
  25137  H          2.6060  165.9160   42.9950 H     4046  MOL4046     0.2052
  25138  H          2.0190  167.0640   43.9390 H     4046  MOL4046     0.2052
  25139  O        138.6170   65.1910  263.9830 O.3   4047  MOL4047    -0.4105
  25140  H        138.9060   64.3580  263.5570 H     4047  MOL4047     0.2052
  25141  H        137.7020   65.0550  264.3420 H     4047  MOL4047     0.2052
  25142  O         93.3630  167.4660  168.2510 O.3   4048  MOL4048    -0.4105
  25143  H         93.2680  167.7310  169.1890 H     4048  MOL4048     0.2052
  25144  H         93.5340  168.2820  167.7130 H     4048  MOL4048     0.2052
  25145  O        129.0890   98.4370  286.5700 O.3   4049  MOL4049    -0.4105
  25146  H        128.1630   98.1840  286.3770 H     4049  MOL4049     0.2052
  25147  H        129.1870   99.4110  286.4040 H     4049  MOL4049     0.2052
  25148  O        156.7420   20.1890   92.5720 O.3   4050  MOL4050    -0.4105
  25149  H        155.8710   20.6380   92.6020 H     4050  MOL4050     0.2052
  25150  H        157.2670   20.5810   91.8270 H     4050  MOL4050     0.2052
  25151  O        176.7650  118.8070  217.2720 O.3   4051  MOL4051    -0.4105
  25152  H        177.4640  119.4090  217.6020 H     4051  MOL4051     0.2052
  25153  H        176.5370  118.1690  217.9980 H     4051  MOL4051     0.2052
  25154  O         53.3970  111.1450   62.0180 O.3   4052  MOL4052    -0.4105
  25155  H         52.6300  111.6550   61.6840 H     4052  MOL4052     0.2052
  25156  H         54.0070  111.7710   62.4870 H     4052  MOL4052     0.2052
  25157  O        122.1490   65.7750  219.3050 O.3   4053  MOL4053    -0.4105
  25158  H        122.2520   65.0410  219.9460 H     4053  MOL4053     0.2052
  25159  H        122.1380   66.6290  219.8090 H     4053  MOL4053     0.2052
  25160  O        117.0640  192.0480  228.5520 O.3   4054  MOL4054    -0.4105
  25161  H        116.9260  192.9730  228.2620 H     4054  MOL4054     0.2052
  25162  H        117.3990  192.0620  229.4860 H     4054  MOL4054     0.2052
  25163  O        166.0340  103.2240  179.5470 O.3   4055  MOL4055    -0.4105
  25164  H        166.9610  102.9050  179.5450 H     4055  MOL4055     0.2052
  25165  H        166.0040  104.0940  179.0710 H     4055  MOL4055     0.2052
  25166  O        120.1910   62.1510   63.4960 O.3   4056  MOL4056    -0.4105
  25167  H        119.9480   63.0530   63.1980 H     4056  MOL4056     0.2052
  25168  H        119.4740   61.8190   64.0960 H     4056  MOL4056     0.2052
  25169  O         44.5050   90.6230  191.9180 O.3   4057  MOL4057    -0.4105
  25170  H         43.6520   90.5550  191.4390 H     4057  MOL4057     0.2052
  25171  H         44.7450   91.5830  191.9900 H     4057  MOL4057     0.2052
  25172  O        115.4790  188.1910  241.8650 O.3   4058  MOL4058    -0.4105
  25173  H        115.4940  187.4750  242.5340 H     4058  MOL4058     0.2052
  25174  H        115.3330  189.0520  242.3350 H     4058  MOL4058     0.2052
  25175  O         59.0100   71.4680   64.7440 O.3   4059  MOL4059    -0.4105
  25176  H         59.6730   72.0420   64.3070 H     4059  MOL4059     0.2052
  25177  H         59.3620   70.5400   64.7550 H     4059  MOL4059     0.2052
  25178  O        155.0760  100.8630  210.7270 O.3   4060  MOL4060    -0.4105
  25179  H        155.1380  101.7570  210.3290 H     4060  MOL4060     0.2052
  25180  H        155.1000  100.9600  211.7140 H     4060  MOL4060     0.2052
  25181  O         43.8350   89.5990  291.0340 O.3   4061  MOL4061    -0.4105
  25182  H         43.9610   90.2820  290.3420 H     4061  MOL4061     0.2052
  25183  H         44.0040   88.7100  290.6270 H     4061  MOL4061     0.2052
  25184  O        176.4120   80.2330  152.6780 O.3   4062  MOL4062    -0.4105
  25185  H        176.9000   81.0430  152.9330 H     4062  MOL4062     0.2052
  25186  H        176.5900   80.0520  151.7190 H     4062  MOL4062     0.2052
  25187  O         24.6780   21.2450  220.1530 O.3   4063  MOL4063    -0.4105
  25188  H         23.8170   20.7820  220.0810 H     4063  MOL4063     0.2052
  25189  H         25.3990   20.5630  220.1400 H     4063  MOL4063     0.2052
  25190  O         59.6680   16.0200  121.2790 O.3   4064  MOL4064    -0.4105
  25191  H         60.5040   16.5320  121.2740 H     4064  MOL4064     0.2052
  25192  H         59.8810   15.0760  121.0600 H     4064  MOL4064     0.2052
  25193  O        151.6460  193.0690   63.3200 O.3   4065  MOL4065    -0.4105
  25194  H        151.3860  192.2680   63.8200 H     4065  MOL4065     0.2052
  25195  H        151.5370  192.8800   62.3520 H     4065  MOL4065     0.2052
  25196  O          6.0580   97.6550  129.3460 O.3   4066  MOL4066    -0.4105
  25197  H          5.3330   97.0930  129.6910 H     4066  MOL4066     0.2052
  25198  H          5.6580   98.3620  128.7760 H     4066  MOL4066     0.2052
  25199  O        180.5060   62.0380   26.7060 O.3   4067  MOL4067    -0.4105
  25200  H        180.5910   61.6060   27.5820 H     4067  MOL4067     0.2052
  25201  H        181.4170   62.1780   26.3390 H     4067  MOL4067     0.2052
  25202  O         54.2360   28.2810  171.0780 O.3   4068  MOL4068    -0.4105
  25203  H         53.6620   29.0750  171.0320 H     4068  MOL4068     0.2052
  25204  H         53.6530   27.4800  171.1300 H     4068  MOL4068     0.2052
  25205  O         18.4230   29.2760   32.0840 O.3   4069  MOL4069    -0.4105
  25206  H         19.3210   28.8840   32.0940 H     4069  MOL4069     0.2052
  25207  H         18.5150   30.2630   32.1210 H     4069  MOL4069     0.2052
  25208  O         16.3880   56.0690   79.2810 O.3   4070  MOL4070    -0.4105
  25209  H         16.3810   55.1360   79.5810 H     4070  MOL4070     0.2052
  25210  H         17.3050   56.4270   79.4030 H     4070  MOL4070     0.2052
  25211  O        100.9960   24.0950   43.6360 O.3   4071  MOL4071    -0.4105
  25212  H        101.8990   23.7770   43.4270 H     4071  MOL4071     0.2052
  25213  H        100.6660   24.6220   42.8630 H     4071  MOL4071     0.2052
  25214  O         62.1680   43.8290  175.1420 O.3   4072  MOL4072    -0.4105
  25215  H         61.5510   43.4630  175.8100 H     4072  MOL4072     0.2052
  25216  H         62.3940   43.1070  174.5000 H     4072  MOL4072     0.2052
  25217  O         35.7730  110.4090   38.6430 O.3   4073  MOL4073    -0.4105
  25218  H         36.6790  110.2450   38.3070 H     4073  MOL4073     0.2052
  25219  H         35.7530  111.3110   39.0550 H     4073  MOL4073     0.2052
  25220  O         21.6040   61.9790   14.0030 O.3   4074  MOL4074    -0.4105
  25221  H         21.7550   62.7070   14.6410 H     4074  MOL4074     0.2052
  25222  H         21.9770   62.2530   13.1250 H     4074  MOL4074     0.2052
  25223  O        136.1110  196.5530    6.6320 O.3   4075  MOL4075    -0.4105
  25224  H        137.0660  196.5370    6.4150 H     4075  MOL4075     0.2052
  25225  H        135.9860  196.1240    7.5180 H     4075  MOL4075     0.2052
  25226  O         94.7800   17.8740  261.6720 O.3   4076  MOL4076    -0.4105
  25227  H         93.9100   17.7460  262.1040 H     4076  MOL4076     0.2052
  25228  H         94.6690   17.7140  260.6990 H     4076  MOL4076     0.2052
  25229  O        106.0590  148.3060  228.4530 O.3   4077  MOL4077    -0.4105
  25230  H        105.5030  147.5120  228.3100 H     4077  MOL4077     0.2052
  25231  H        106.4130  148.2750  229.3800 H     4077  MOL4077     0.2052
  25232  O         82.0100  172.2010   92.4270 O.3   4078  MOL4078    -0.4105
  25233  H         81.1130  172.3830   92.7780 H     4078  MOL4078     0.2052
  25234  H         81.9160  171.8300   91.5110 H     4078  MOL4078     0.2052
  25235  O        129.8840  125.4280   12.8720 O.3   4079  MOL4079    -0.4105
  25236  H        130.1480  126.0040   13.6200 H     4079  MOL4079     0.2052
  25237  H        129.5980  124.5520   13.2400 H     4079  MOL4079     0.2052
  25238  O        126.3620  187.4250  259.5960 O.3   4080  MOL4080    -0.4105
  25239  H        126.8320  188.2850  259.5960 H     4080  MOL4080     0.2052
  25240  H        125.7180  187.4230  258.8410 H     4080  MOL4080     0.2052
  25241  O        188.0870  152.0490  156.3490 O.3   4081  MOL4081    -0.4105
  25242  H        187.7590  152.7750  155.7800 H     4081  MOL4081     0.2052
  25243  H        187.7660  151.1890  155.9720 H     4081  MOL4081     0.2052
  25244  O        127.6530   60.0340   55.3900 O.3   4082  MOL4082    -0.4105
  25245  H        128.0070   59.1500   55.6210 H     4082  MOL4082     0.2052
  25246  H        128.3410   60.5140   54.8590 H     4082  MOL4082     0.2052
  25247  O        168.4550  125.4230  110.0950 O.3   4083  MOL4083    -0.4105
  25248  H        167.5210  125.7010  109.9890 H     4083  MOL4083     0.2052
  25249  H        169.0140  126.2380  110.1730 H     4083  MOL4083     0.2052
  25250  O        109.8450  179.3750  161.4380 O.3   4084  MOL4084    -0.4105
  25251  H        110.1350  179.4000  162.3740 H     4084  MOL4084     0.2052
  25252  H        110.4220  178.7310  160.9510 H     4084  MOL4084     0.2052
  25253  O         26.9390  162.8150  193.8280 O.3   4085  MOL4085    -0.4105
  25254  H         27.2330  163.3560  194.5900 H     4085  MOL4085     0.2052
  25255  H         26.1520  163.2590  193.4180 H     4085  MOL4085     0.2052
  25256  O         19.0980   91.4930   18.4540 O.3   4086  MOL4086    -0.4105
  25257  H         19.0550   92.4350   18.7200 H     4086  MOL4086     0.2052
  25258  H         18.1930   91.0990   18.5610 H     4086  MOL4086     0.2052
  25259  O        169.9650   75.2290  198.1420 O.3   4087  MOL4087    -0.4105
  25260  H        169.5770   75.6600  197.3520 H     4087  MOL4087     0.2052
  25261  H        170.3940   75.9300  198.6990 H     4087  MOL4087     0.2052
  25262  O         51.9860   30.9630  294.2540 O.3   4088  MOL4088    -0.4105
  25263  H         51.8280   31.7050  294.8740 H     4088  MOL4088     0.2052
  25264  H         51.3040   31.0100  293.5340 H     4088  MOL4088     0.2052
  25265  O         80.3430   42.7360  147.4600 O.3   4089  MOL4089    -0.4105
  25266  H         79.8390   42.1920  146.8190 H     4089  MOL4089     0.2052
  25267  H         80.9840   42.1440  147.9330 H     4089  MOL4089     0.2052
  25268  O         56.7850  120.4790  191.1280 O.3   4090  MOL4090    -0.4105
  25269  H         56.3650  119.9080  190.4520 H     4090  MOL4090     0.2052
  25270  H         57.7270  120.6400  190.8580 H     4090  MOL4090     0.2052
  25271  O        102.8770   78.4900  282.2000 O.3   4091  MOL4091    -0.4105
  25272  H        102.0760   77.9280  282.2660 H     4091  MOL4091     0.2052
  25273  H        103.6700   77.8950  282.1520 H     4091  MOL4091     0.2052
  25274  O        152.1050   99.1770    6.1090 O.3   4092  MOL4092    -0.4105
  25275  H        151.3940   99.3580    5.4580 H     4092  MOL4092     0.2052
  25276  H        152.5040   98.2940    5.8950 H     4092  MOL4092     0.2052
  25277  O         12.9730  113.9720   28.5520 O.3   4093  MOL4093    -0.4105
  25278  H         12.8450  114.8760   28.9090 H     4093  MOL4093     0.2052
  25279  H         12.8460  113.3250   29.2930 H     4093  MOL4093     0.2052
  25280  O         39.0130  113.2670  132.2820 O.3   4094  MOL4094    -0.4105
  25281  H         38.0950  113.6100  132.2810 H     4094  MOL4094     0.2052
  25282  H         39.6340  114.0410  132.2520 H     4094  MOL4094     0.2052
  25283  O         56.7900   24.9000  171.9140 O.3   4095  MOL4095    -0.4105
  25284  H         57.2670   24.0840  171.6570 H     4095  MOL4095     0.2052
  25285  H         57.3850   25.4370  172.4990 H     4095  MOL4095     0.2052
  25286  O         38.2390   74.9480   47.4620 O.3   4096  MOL4096    -0.4105
  25287  H         39.0260   74.3870   47.3020 H     4096  MOL4096     0.2052
  25288  H         38.5500   75.8550   47.7190 H     4096  MOL4096     0.2052
  25289  O          9.5710  168.6400  118.4890 O.3   4097  MOL4097    -0.4105
  25290  H          8.9840  168.6920  119.2720 H     4097  MOL4097     0.2052
  25291  H         10.4900  168.8860  118.7730 H     4097  MOL4097     0.2052
  25292  O        181.5540   78.9180  214.8100 O.3   4098  MOL4098    -0.4105
  25293  H        182.1460   78.8080  214.0370 H     4098  MOL4098     0.2052
  25294  H        181.4160   79.8890  214.9610 H     4098  MOL4098     0.2052
  25295  O         94.3530  155.8180   68.0210 O.3   4099  MOL4099    -0.4105
  25296  H         94.9180  156.2140   68.7170 H     4099  MOL4099     0.2052
  25297  H         94.9430  155.4780   67.2990 H     4099  MOL4099     0.2052
  25298  O        100.1320  148.8860   53.8410 O.3   4100  MOL4100    -0.4105
  25299  H        100.1770  149.5750   54.5360 H     4100  MOL4100     0.2052
  25300  H         99.4930  148.1870   54.1370 H     4100  MOL4100     0.2052
  25301  O          6.2160    8.2740   98.2960 O.3   4101  MOL4101    -0.4105
  25302  H          5.9210    8.8810   99.0060 H     4101  MOL4101     0.2052
  25303  H          7.0940    8.5930   97.9610 H     4101  MOL4101     0.2052
  25304  O          4.7440  168.2650   61.1280 O.3   4102  MOL4102    -0.4105
  25305  H          5.5930  168.7040   60.9110 H     4102  MOL4102     0.2052
  25306  H          4.9330  167.3150   61.3460 H     4102  MOL4102     0.2052
  25307  O        147.0400  153.8040   63.7760 O.3   4103  MOL4103    -0.4105
  25308  H        147.8910  154.0950   63.3870 H     4103  MOL4103     0.2052
  25309  H        146.4910  154.6090   63.9600 H     4103  MOL4103     0.2052
  25310  O         67.5120  199.4190   60.7170 O.3   4104  MOL4104    -0.4105
  25311  H         67.4700  198.5120   60.3500 H     4104  MOL4104     0.2052
  25312  H         66.8120  199.9660   60.2750 H     4104  MOL4104     0.2052
  25313  O         69.4570  137.2940   50.4710 O.3   4105  MOL4105    -0.4105
  25314  H         70.0200  136.6270   50.9160 H     4105  MOL4105     0.2052
  25315  H         69.9070  138.1750   50.5390 H     4105  MOL4105     0.2052
  25316  O        106.5420   64.9290   22.5170 O.3   4106  MOL4106    -0.4105
  25317  H        105.7870   64.6080   21.9810 H     4106  MOL4106     0.2052
  25318  H        106.1930   65.2350   23.3940 H     4106  MOL4106     0.2052
  25319  O         36.5280   86.5580   60.1140 O.3   4107  MOL4107    -0.4105
  25320  H         37.0370   85.9220   60.6600 H     4107  MOL4107     0.2052
  25321  H         37.0250   86.7070   59.2680 H     4107  MOL4107     0.2052
  25322  O         77.5890  104.2520  263.2590 O.3   4108  MOL4108    -0.4105
  25323  H         77.3240  103.5870  262.5900 H     4108  MOL4108     0.2052
  25324  H         76.8310  104.3800  263.8870 H     4108  MOL4108     0.2052
  25325  O        183.6990   42.7660  269.5680 O.3   4109  MOL4109    -0.4105
  25326  H        182.9380   43.2990  269.8800 H     4109  MOL4109     0.2052
  25327  H        184.3490   43.3780  269.1330 H     4109  MOL4109     0.2052
  25328  O         27.6090  107.0000  176.9600 O.3   4110  MOL4110    -0.4105
  25329  H         27.0010  107.7620  176.8590 H     4110  MOL4110     0.2052
  25330  H         28.5390  107.3290  176.8540 H     4110  MOL4110     0.2052
  25331  O        171.6520   73.8980  291.7640 O.3   4111  MOL4111    -0.4105
  25332  H        171.7990   73.0220  291.3520 H     4111  MOL4111     0.2052
  25333  H        172.2200   73.9600  292.5750 H     4111  MOL4111     0.2052
  25334  O        165.4490   28.5390  257.5710 O.3   4112  MOL4112    -0.4105
  25335  H        166.1860   27.9460  257.8250 H     4112  MOL4112     0.2052
  25336  H        165.5050   29.3600  258.1250 H     4112  MOL4112     0.2052
  25337  O        116.5900  140.3330   77.0480 O.3   4113  MOL4113    -0.4105
  25338  H        116.1470  140.2980   77.9210 H     4113  MOL4113     0.2052
  25339  H        115.9340  140.6610   76.3790 H     4113  MOL4113     0.2052
  25340  O         29.1030   14.2240   56.0270 O.3   4114  MOL4114    -0.4105
  25341  H         29.3410   13.2760   56.0880 H     4114  MOL4114     0.2052
  25342  H         29.7840   14.7480   56.5240 H     4114  MOL4114     0.2052
  25343  O         31.1150   22.6340  294.3890 O.3   4115  MOL4115    -0.4105
  25344  H         31.7010   23.1060  295.0160 H     4115  MOL4115     0.2052
  25345  H         31.0720   21.6810  294.6610 H     4115  MOL4115     0.2052
  25346  O         11.7120   50.9390  215.6970 O.3   4116  MOL4116    -0.4105
  25347  H         12.6200   50.5760  215.6380 H     4116  MOL4116     0.2052
  25348  H         11.1480   50.2880  216.1900 H     4116  MOL4116     0.2052
  25349  O        177.5210  120.4740    8.7960 O.3   4117  MOL4117    -0.4105
  25350  H        178.3730  120.3520    9.2650 H     4117  MOL4117     0.2052
  25351  H        177.1950  121.3930    8.9810 H     4117  MOL4117     0.2052
  25352  O        113.0280  146.8640   37.6820 O.3   4118  MOL4118    -0.4105
  25353  H        113.2870  146.0090   38.0850 H     4118  MOL4118     0.2052
  25354  H        112.6100  146.6780   36.8010 H     4118  MOL4118     0.2052
  25355  O        163.1830   93.9280   70.3850 O.3   4119  MOL4119    -0.4105
  25356  H        162.2510   93.7020   70.5880 H     4119  MOL4119     0.2052
  25357  H        163.5000   94.5790   71.0630 H     4119  MOL4119     0.2052
  25358  O        123.0330   12.9070  228.7250 O.3   4120  MOL4120    -0.4105
  25359  H        123.5660   12.0840  228.7170 H     4120  MOL4120     0.2052
  25360  H        122.5630   12.9810  227.8540 H     4120  MOL4120     0.2052
  25361  O         33.9000  167.6840  188.0200 O.3   4121  MOL4121    -0.4105
  25362  H         34.1830  166.8110  188.3640 H     4121  MOL4121     0.2052
  25363  H         34.6850  168.1190  187.5960 H     4121  MOL4121     0.2052
  25364  O         29.7380   69.5600  118.3380 O.3   4122  MOL4122    -0.4105
  25365  H         29.8080   69.3800  117.3770 H     4122  MOL4122     0.2052
  25366  H         29.0660   70.2780  118.4710 H     4122  MOL4122     0.2052
  25367  O        146.6270   29.2160   62.7950 O.3   4123  MOL4123    -0.4105
  25368  H        147.3590   29.8680   62.8270 H     4123  MOL4123     0.2052
  25369  H        147.0180   28.3070   62.8640 H     4123  MOL4123     0.2052
  25370  O         39.2410   38.8440  120.1890 O.3   4124  MOL4124    -0.4105
  25371  H         38.7600   39.5030  120.7330 H     4124  MOL4124     0.2052
  25372  H         40.1760   38.7920  120.5180 H     4124  MOL4124     0.2052
  25373  O         35.3220  137.5130  271.3190 O.3   4125  MOL4125    -0.4105
  25374  H         34.6920  138.2580  271.4080 H     4125  MOL4125     0.2052
  25375  H         34.9280  136.7170  271.7620 H     4125  MOL4125     0.2052
  25376  O        190.8670   29.2670    8.6560 O.3   4126  MOL4126    -0.4105
  25377  H        191.2850   29.0570    9.5170 H     4126  MOL4126     0.2052
  25378  H        191.3930   28.8260    7.9400 H     4126  MOL4126     0.2052
  25379  O         25.9870   50.3040  249.8950 O.3   4127  MOL4127    -0.4105
  25380  H         25.7130   50.6840  250.7560 H     4127  MOL4127     0.2052
  25381  H         25.2020   50.3120  249.2890 H     4127  MOL4127     0.2052
  25382  O         67.1900  173.7950   79.3520 O.3   4128  MOL4128    -0.4105
  25383  H         66.4790  174.3350   79.7560 H     4128  MOL4128     0.2052
  25384  H         66.8170  173.3390   78.5530 H     4128  MOL4128     0.2052
  25385  O        178.9610   53.4360   88.5850 O.3   4129  MOL4129    -0.4105
  25386  H        179.2760   52.6860   88.0380 H     4129  MOL4129     0.2052
  25387  H        179.1840   53.2450   89.5330 H     4129  MOL4129     0.2052
  25388  O        112.2560   91.1060  214.7340 O.3   4130  MOL4130    -0.4105
  25389  H        112.8660   91.2360  213.9780 H     4130  MOL4130     0.2052
  25390  H        112.7570   91.2890  215.5710 H     4130  MOL4130     0.2052
  25391  O        189.4570   48.3080   22.7810 O.3   4131  MOL4131    -0.4105
  25392  H        190.1620   48.2610   23.4600 H     4131  MOL4131     0.2052
  25393  H        189.3360   49.2590   22.5240 H     4131  MOL4131     0.2052
  25394  O        101.1520  133.0730  208.4350 O.3   4132  MOL4132    -0.4105
  25395  H        100.9930  134.0250  208.2650 H     4132  MOL4132     0.2052
  25396  H        102.0810  132.9680  208.7690 H     4132  MOL4132     0.2052
  25397  O        130.4700  163.3200  179.9990 O.3   4133  MOL4133    -0.4105
  25398  H        130.0470  162.4360  179.9810 H     4133  MOL4133     0.2052
  25399  H        129.7530  164.0060  179.9990 H     4133  MOL4133     0.2052
  25400  O        181.6470   42.4320  236.3820 O.3   4134  MOL4134    -0.4105
  25401  H        181.1420   43.2530  236.5560 H     4134  MOL4134     0.2052
  25402  H        181.8410   41.9970  237.2530 H     4134  MOL4134     0.2052
  25403  O         21.2740  127.5060   16.2430 O.3   4135  MOL4135    -0.4105
  25404  H         20.6180  127.5970   16.9650 H     4135  MOL4135     0.2052
  25405  H         20.9430  126.8210   15.6060 H     4135  MOL4135     0.2052
  25406  O          2.4950  166.3670   17.7370 O.3   4136  MOL4136    -0.4105
  25407  H          2.8780  165.8420   18.4710 H     4136  MOL4136     0.2052
  25408  H          3.2380  166.8080   17.2500 H     4136  MOL4136     0.2052
  25409  O         80.5340   90.2650  273.7840 O.3   4137  MOL4137    -0.4105
  25410  H         81.4820   90.1970  273.5480 H     4137  MOL4137     0.2052
  25411  H         80.1250   89.3660  273.6900 H     4137  MOL4137     0.2052
  25412  O         74.7980   15.5680  261.6650 O.3   4138  MOL4138    -0.4105
  25413  H         74.9610   14.7310  261.1830 H     4138  MOL4138     0.2052
  25414  H         75.6700   16.0230  261.8010 H     4138  MOL4138     0.2052
  25415  O        114.3520    2.2090  238.7560 O.3   4139  MOL4139    -0.4105
  25416  H        113.9100    2.2330  237.8810 H     4139  MOL4139     0.2052
  25417  H        115.3260    2.0860  238.6080 H     4139  MOL4139     0.2052
  25418  O        127.9630  169.2010   90.1850 O.3   4140  MOL4140    -0.4105
  25419  H        127.3460  168.5380   89.8100 H     4140  MOL4140     0.2052
  25420  H        127.4420  170.0130   90.4180 H     4140  MOL4140     0.2052
  25421  O        165.3570   78.4070  287.1860 O.3   4141  MOL4141    -0.4105
  25422  H        165.6200   77.7130  287.8260 H     4141  MOL4141     0.2052
  25423  H        164.3670   78.4660  287.1810 H     4141  MOL4141     0.2052
  25424  O        176.7280   51.6990    2.9760 O.3   4142  MOL4142    -0.4105
  25425  H        177.4000   51.0090    3.1560 H     4142  MOL4142     0.2052
  25426  H        177.1730   52.5850    3.0200 H     4142  MOL4142     0.2052
  25427  O         92.4720   68.4480  281.1780 O.3   4143  MOL4143    -0.4105
  25428  H         92.4550   67.5160  281.4810 H     4143  MOL4143     0.2052
  25429  H         93.4160   68.7060  281.0180 H     4143  MOL4143     0.2052
  25430  O         27.0300   12.8140   94.2310 O.3   4144  MOL4144    -0.4105
  25431  H         27.0800   12.2340   93.4430 H     4144  MOL4144     0.2052
  25432  H         26.4070   12.4000   94.8820 H     4144  MOL4144     0.2052
  25433  O          0.6200  155.2470  254.3690 O.3   4145  MOL4145    -0.4105
  25434  H          1.3720  155.8560  254.5230 H     4145  MOL4145     0.2052
  25435  H          0.0000  155.6780  253.7240 H     4145  MOL4145     0.2052
  25436  O         85.4970   37.5520  157.9410 O.3   4146  MOL4146    -0.4105
  25437  H         85.6570   37.5390  156.9750 H     4146  MOL4146     0.2052
  25438  H         84.5400   37.3450  158.1010 H     4146  MOL4146     0.2052
  25439  O        104.7600   83.3340   74.0850 O.3   4147  MOL4147    -0.4105
  25440  H        104.9490   84.1720   74.5550 H     4147  MOL4147     0.2052
  25441  H        103.8000   83.3280   73.8330 H     4147  MOL4147     0.2052
  25442  O        104.7180  140.2700   73.4170 O.3   4148  MOL4148    -0.4105
  25443  H        104.1620  141.0040   73.0800 H     4148  MOL4148     0.2052
  25444  H        104.1220  139.5090   73.6430 H     4148  MOL4148     0.2052
  25445  O        129.3430  174.2490  166.4310 O.3   4149  MOL4149    -0.4105
  25446  H        128.3730  174.2190  166.2980 H     4149  MOL4149     0.2052
  25447  H        129.6390  173.3600  166.7590 H     4149  MOL4149     0.2052
  25448  O        119.8360   14.9910   61.5330 O.3   4150  MOL4150    -0.4105
  25449  H        119.5810   15.8690   61.8850 H     4150  MOL4150     0.2052
  25450  H        119.3780   14.2950   62.0720 H     4150  MOL4150     0.2052
  25451  O         88.9840   37.3560  136.1880 O.3   4151  MOL4151    -0.4105
  25452  H         88.4510   38.1750  136.2560 H     4151  MOL4151     0.2052
  25453  H         89.3460   37.2970  135.2660 H     4151  MOL4151     0.2052
  25454  O        157.3340  170.9750   57.6130 O.3   4152  MOL4152    -0.4105
  25455  H        158.0680  171.2710   57.0350 H     4152  MOL4152     0.2052
  25456  H        157.3740  171.4940   58.4570 H     4152  MOL4152     0.2052
  25457  O        197.0130   33.2760   11.8220 O.3   4153  MOL4153    -0.4105
  25458  H        196.9000   34.2450   11.9190 H     4153  MOL4153     0.2052
  25459  H        196.1150   32.8680   11.7110 H     4153  MOL4153     0.2052
  25460  O         37.2800   11.5520  241.3520 O.3   4154  MOL4154    -0.4105
  25461  H         37.2900   12.3070  241.9770 H     4154  MOL4154     0.2052
  25462  H         36.5670   11.7150  240.6810 H     4154  MOL4154     0.2052
  25463  O         94.3120   10.7200  274.9860 O.3   4155  MOL4155    -0.4105
  25464  H         94.4740   11.4900  275.5710 H     4155  MOL4155     0.2052
  25465  H         94.5620    9.8970  275.4790 H     4155  MOL4155     0.2052
  25466  O        198.8980  143.6180  253.7170 O.3   4156  MOL4156    -0.4105
  25467  H        198.0090  144.0230  253.7830 H     4156  MOL4156     0.2052
  25468  H        198.8010  142.6360  253.8230 H     4156  MOL4156     0.2052
  25469  O         44.2890  142.4900   30.6570 O.3   4157  MOL4157    -0.4105
  25470  H         43.3840  142.4290   30.2850 H     4157  MOL4157     0.2052
  25471  H         44.5610  141.5870   30.9640 H     4157  MOL4157     0.2052
  25472  O        170.5400  102.8880  234.8640 O.3   4158  MOL4158    -0.4105
  25473  H        170.5490  102.1280  235.4820 H     4158  MOL4158     0.2052
  25474  H        169.9470  102.6620  234.1010 H     4158  MOL4158     0.2052
  25475  O        169.8080   16.5650   13.3970 O.3   4159  MOL4159    -0.4105
  25476  H        170.7070   16.8360   13.1160 H     4159  MOL4159     0.2052
  25477  H        169.4020   17.3150   13.9030 H     4159  MOL4159     0.2052
  25478  O        152.7320  175.5430  114.4520 O.3   4160  MOL4160    -0.4105
  25479  H        151.9420  174.9910  114.6290 H     4160  MOL4160     0.2052
  25480  H        152.4870  176.4930  114.6020 H     4160  MOL4160     0.2052
  25481  O        132.5910   68.9470  227.6730 O.3   4161  MOL4161    -0.4105
  25482  H        133.2970   68.9100  226.9940 H     4161  MOL4161     0.2052
  25483  H        132.0950   69.7990  227.5580 H     4161  MOL4161     0.2052
  25484  O         64.0320   49.3670   14.4260 O.3   4162  MOL4162    -0.4105
  25485  H         63.3870   48.6300   14.4080 H     4162  MOL4162     0.2052
  25486  H         63.5270   50.2210   14.4160 H     4162  MOL4162     0.2052
  25487  O         92.4140    4.4330  114.4340 O.3   4163  MOL4163    -0.4105
  25488  H         93.2910    4.5470  114.0120 H     4163  MOL4163     0.2052
  25489  H         92.2770    5.1800  115.0730 H     4163  MOL4163     0.2052
  25490  O          3.2010   71.7330  270.2270 O.3   4164  MOL4164    -0.4105
  25491  H          2.5950   72.4730  270.4430 H     4164  MOL4164     0.2052
  25492  H          4.1060   72.1090  270.0700 H     4164  MOL4164     0.2052
  25493  O         43.9280  103.8240  272.3740 O.3   4165  MOL4165    -0.4105
  25494  H         43.8390  104.2820  273.2350 H     4165  MOL4165     0.2052
  25495  H         43.7730  104.4860  271.6520 H     4165  MOL4165     0.2052
  25496  O        193.1280   57.4530  185.1430 O.3   4166  MOL4166    -0.4105
  25497  H        192.5350   58.1530  184.7980 H     4166  MOL4166     0.2052
  25498  H        193.8900   57.3550  184.5150 H     4166  MOL4166     0.2052
  25499  O         18.2180   73.8710  250.7370 O.3   4167  MOL4167    -0.4105
  25500  H         17.3860   73.3930  250.5340 H     4167  MOL4167     0.2052
  25501  H         18.0010   74.8300  250.8690 H     4167  MOL4167     0.2052
  25502  O         24.1740   44.8800   33.0540 O.3   4168  MOL4168    -0.4105
  25503  H         23.8810   44.1770   33.6710 H     4168  MOL4168     0.2052
  25504  H         24.7750   44.4700   32.3790 H     4168  MOL4168     0.2052
  25505  O         86.5730   91.9190  282.6530 O.3   4169  MOL4169    -0.4105
  25506  H         86.2300   92.8240  282.4990 H     4169  MOL4169     0.2052
  25507  H         86.1340   91.5540  283.4640 H     4169  MOL4169     0.2052
  25508  O         19.5270   54.1550  159.3550 O.3   4170  MOL4170    -0.4105
  25509  H         18.7230   54.4920  158.9080 H     4170  MOL4170     0.2052
  25510  H         19.5420   53.1670  159.2640 H     4170  MOL4170     0.2052
  25511  O         56.7350  144.6680  167.3740 O.3   4171  MOL4171    -0.4105
  25512  H         56.9420  144.6350  168.3320 H     4171  MOL4171     0.2052
  25513  H         55.9000  145.1910  167.2560 H     4171  MOL4171     0.2052
  25514  O        160.4700   89.6110  174.2900 O.3   4172  MOL4172    -0.4105
  25515  H        160.8920   89.9310  173.4650 H     4172  MOL4172     0.2052
  25516  H        160.8040   90.1620  175.0440 H     4172  MOL4172     0.2052
  25517  O        196.3570  111.3530    5.0170 O.3   4173  MOL4173    -0.4105
  25518  H        197.3000  111.5840    4.8860 H     4173  MOL4173     0.2052
  25519  H        195.8380  112.1960    5.0920 H     4173  MOL4173     0.2052
  25520  O         55.7560   44.1800   22.6890 O.3   4174  MOL4174    -0.4105
  25521  H         56.2370   44.6550   23.3990 H     4174  MOL4174     0.2052
  25522  H         56.2940   43.3900   22.4240 H     4174  MOL4174     0.2052
  25523  O         33.3990   20.8890  288.7160 O.3   4175  MOL4175    -0.4105
  25524  H         33.2970   21.6650  288.1260 H     4175  MOL4175     0.2052
  25525  H         33.1960   20.0720  288.1920 H     4175  MOL4175     0.2052
  25526  O        118.0410   65.8650  218.5280 O.3   4176  MOL4176    -0.4105
  25527  H        118.6470   65.0950  218.4890 H     4176  MOL4176     0.2052
  25528  H        117.6110   65.8760  219.4210 H     4176  MOL4176     0.2052
  25529  O        125.1990   73.2400  182.8320 O.3   4177  MOL4177    -0.4105
  25530  H        125.4100   73.5690  183.7310 H     4177  MOL4177     0.2052
  25531  H        125.9090   73.5530  182.2130 H     4177  MOL4177     0.2052
  25532  O         88.3190  186.8900  234.0450 O.3   4178  MOL4178    -0.4105
  25533  H         88.1220  187.8490  234.0200 H     4178  MOL4178     0.2052
  25534  H         87.5090  186.4150  234.3670 H     4178  MOL4178     0.2052
  25535  O         98.1640   38.8660  215.9070 O.3   4179  MOL4179    -0.4105
  25536  H         97.7960   38.4710  216.7250 H     4179  MOL4179     0.2052
  25537  H         98.8860   38.2730  215.5740 H     4179  MOL4179     0.2052
  25538  O        174.3580  197.8710  111.7580 O.3   4180  MOL4180    -0.4105
  25539  H        173.7560  197.4050  112.3770 H     4180  MOL4180     0.2052
  25540  H        173.8930  197.9650  110.8860 H     4180  MOL4180     0.2052
  25541  O         10.2860  196.7000  143.8180 O.3   4181  MOL4181    -0.4105
  25542  H         10.8820  197.4670  143.6840 H     4181  MOL4181     0.2052
  25543  H         10.0070  196.3650  142.9270 H     4181  MOL4181     0.2052
  25544  O        198.1160   23.2580   16.7610 O.3   4182  MOL4182    -0.4105
  25545  H        197.6270   22.4130   16.8430 H     4182  MOL4182     0.2052
  25546  H        199.0850   23.0510   16.7020 H     4182  MOL4182     0.2052
  25547  O         44.5720   57.9640  234.1570 O.3   4183  MOL4183    -0.4105
  25548  H         44.4310   58.3660  235.0400 H     4183  MOL4183     0.2052
  25549  H         44.4080   56.9880  234.2320 H     4183  MOL4183     0.2052
  25550  O         89.8660   29.8620  246.0250 O.3   4184  MOL4184    -0.4105
  25551  H         90.6660   29.3870  245.7180 H     4184  MOL4184     0.2052
  25552  H         89.1860   29.1880  246.2870 H     4184  MOL4184     0.2052
  25553  O         61.4120   25.1350  200.4230 O.3   4185  MOL4185    -0.4105
  25554  H         60.7710   24.3950  200.3910 H     4185  MOL4185     0.2052
  25555  H         60.9060   25.9800  200.5430 H     4185  MOL4185     0.2052
  25556  O         73.4700   27.6940  131.7540 O.3   4186  MOL4186    -0.4105
  25557  H         72.5240   27.9500  131.7910 H     4186  MOL4186     0.2052
  25558  H         73.5270   26.7070  131.8450 H     4186  MOL4186     0.2052
  25559  O        154.1370  163.2690  210.7470 O.3   4187  MOL4187    -0.4105
  25560  H        153.7080  164.1180  210.9830 H     4187  MOL4187     0.2052
  25561  H        154.9290  163.4680  210.1840 H     4187  MOL4187     0.2052
  25562  O        138.0000   58.1810  260.8920 O.3   4188  MOL4188    -0.4105
  25563  H        137.1070   58.0810  260.4990 H     4188  MOL4188     0.2052
  25564  H        137.8940   58.5130  261.8210 H     4188  MOL4188     0.2052
  25565  O        193.9350   32.7810  250.7030 O.3   4189  MOL4189    -0.4105
  25566  H        194.5470   33.2910  250.1320 H     4189  MOL4189     0.2052
  25567  H        193.0890   33.2930  250.7870 H     4189  MOL4189     0.2052
  25568  O         32.1740  122.8330   59.1100 O.3   4190  MOL4190    -0.4105
  25569  H         31.2410  123.1200   59.1980 H     4190  MOL4190     0.2052
  25570  H         32.4090  122.8320   58.1460 H     4190  MOL4190     0.2052
  25571  O        161.5220   17.0540  140.0820 O.3   4191  MOL4191    -0.4105
  25572  H        161.3740   16.1280  139.7990 H     4191  MOL4191     0.2052
  25573  H        161.0610   17.1910  140.9500 H     4191  MOL4191     0.2052
  25574  O         43.0580   53.7640  286.7590 O.3   4192  MOL4192    -0.4105
  25575  H         43.0540   54.2720  285.9210 H     4192  MOL4192     0.2052
  25576  H         42.5890   54.3010  287.4490 H     4192  MOL4192     0.2052
  25577  O        183.7000  179.0580  164.5410 O.3   4193  MOL4193    -0.4105
  25578  H        184.5980  178.6700  164.6100 H     4193  MOL4193     0.2052
  25579  H        183.7140  179.9510  164.9750 H     4193  MOL4193     0.2052
  25580  O         24.1450    7.7940  255.8290 O.3   4194  MOL4194    -0.4105
  25581  H         24.2390    8.3420  255.0220 H     4194  MOL4194     0.2052
  25582  H         23.2540    7.9770  256.2270 H     4194  MOL4194     0.2052
  25583  O        150.8200   19.5750  202.5880 O.3   4195  MOL4195    -0.4105
  25584  H        150.6800   18.6520  202.2920 H     4195  MOL4195     0.2052
  25585  H        151.6770   19.8970  202.2050 H     4195  MOL4195     0.2052
  25586  O         94.1640  130.5850  285.6360 O.3   4196  MOL4196    -0.4105
  25587  H         95.0990  130.8390  285.7850 H     4196  MOL4196     0.2052
  25588  H         94.1460  129.8390  284.9830 H     4196  MOL4196     0.2052
  25589  O         15.9130   18.7660  195.8200 O.3   4197  MOL4197    -0.4105
  25590  H         16.6690   18.3600  195.3460 H     4197  MOL4197     0.2052
  25591  H         15.2940   18.0410  196.0950 H     4197  MOL4197     0.2052
  25592  O         23.1890  192.7330  128.5840 O.3   4198  MOL4198    -0.4105
  25593  H         23.6000  191.8970  128.2760 H     4198  MOL4198     0.2052
  25594  H         23.8440  193.2060  129.1610 H     4198  MOL4198     0.2052
  25595  O         29.9630   58.1290  224.9880 O.3   4199  MOL4199    -0.4105
  25596  H         29.1450   58.4090  224.5260 H     4199  MOL4199     0.2052
  25597  H         30.2010   58.8290  225.6500 H     4199  MOL4199     0.2052
  25598  O        109.2200   39.0200   86.2590 O.3   4200  MOL4200    -0.4105
  25599  H        109.1410   39.7520   86.9060 H     4200  MOL4200     0.2052
  25600  H        108.4250   39.0440   85.6650 H     4200  MOL4200     0.2052
  25601  O        127.9870  164.2580  256.7200 O.3   4201  MOL4201    -0.4105
  25602  H        128.4490  165.0980  256.5170 H     4201  MOL4201     0.2052
  25603  H        128.6490  163.5200  256.6680 H     4201  MOL4201     0.2052
  25604  O         85.0640  199.1810  134.8520 O.3   4202  MOL4202    -0.4105
  25605  H         84.9150  198.3750  135.3910 H     4202  MOL4202     0.2052
  25606  H         85.9760  199.1320  134.4660 H     4202  MOL4202     0.2052
  25607  O        192.0860   22.9700  224.3000 O.3   4203  MOL4203    -0.4105
  25608  H        192.3770   22.0450  224.4440 H     4203  MOL4203     0.2052
  25609  H        191.8110   23.0650  223.3520 H     4203  MOL4203     0.2052
  25610  O        152.9520   94.7990  240.8560 O.3   4204  MOL4204    -0.4105
  25611  H        152.6980   93.9760  241.3240 H     4204  MOL4204     0.2052
  25612  H        152.2050   95.4470  240.9400 H     4204  MOL4204     0.2052
  25613  O        153.0440    4.3300   10.1220 O.3   4205  MOL4205    -0.4105
  25614  H        153.7830    4.2860   10.7640 H     4205  MOL4205     0.2052
  25615  H        152.2270    3.9840   10.5660 H     4205  MOL4205     0.2052
  25616  O         80.4760   57.9730  261.1390 O.3   4206  MOL4206    -0.4105
  25617  H         80.4950   56.9940  261.1690 H     4206  MOL4206     0.2052
  25618  H         81.4120   58.3030  261.1590 H     4206  MOL4206     0.2052
  25619  O         36.4600  166.6490  272.1760 O.3   4207  MOL4207    -0.4105
  25620  H         37.1740  165.9800  272.1170 H     4207  MOL4207     0.2052
  25621  H         36.5000  167.0670  273.0750 H     4207  MOL4207     0.2052
  25622  O        147.2080  106.0460  298.1460 O.3   4208  MOL4208    -0.4105
  25623  H        148.1600  106.1170  297.9240 H     4208  MOL4208     0.2052
  25624  H        147.1300  105.8140  299.1080 H     4208  MOL4208     0.2052
  25625  O         99.2510   42.7440  208.3190 O.3   4209  MOL4209    -0.4105
  25626  H         99.6900   41.9900  208.7660 H     4209  MOL4209     0.2052
  25627  H         99.7480   43.5720  208.5480 H     4209  MOL4209     0.2052
  25628  O        199.5000   15.6130   94.7620 O.3   4210  MOL4210    -0.4105
  25629  H        198.5230   15.5820   94.8370 H     4210  MOL4210     0.2052
  25630  H        199.7710   16.5580   94.6350 H     4210  MOL4210     0.2052
  25631  O         20.1800  139.2760  129.4290 O.3   4211  MOL4211    -0.4105
  25632  H         20.4370  138.7850  128.6200 H     4211  MOL4211     0.2052
  25633  H         20.9600  139.2930  130.0420 H     4211  MOL4211     0.2052
  25634  O        141.7880   17.1800   71.6040 O.3   4212  MOL4212    -0.4105
  25635  H        140.8270   17.3220   71.4790 H     4212  MOL4212     0.2052
  25636  H        142.2510   17.4340   70.7640 H     4212  MOL4212     0.2052
  25637  O         70.4130  189.8390   47.0130 O.3   4213  MOL4213    -0.4105
  25638  H         70.5570  188.8750   47.1220 H     4213  MOL4213     0.2052
  25639  H         69.4400  190.0170   47.0860 H     4213  MOL4213     0.2052
  25640  O         98.9250   30.7760   76.1570 O.3   4214  MOL4214    -0.4105
  25641  H         99.7670   30.6200   75.6790 H     4214  MOL4214     0.2052
  25642  H         98.2050   30.9000   75.4860 H     4214  MOL4214     0.2052
  25643  O          0.6970  171.5360   68.6450 O.3   4215  MOL4215    -0.4105
  25644  H          0.0050  171.0750   68.1250 H     4215  MOL4215     0.2052
  25645  H          0.2640  172.2690   69.1550 H     4215  MOL4215     0.2052
  25646  O         47.7970    4.1490  137.9890 O.3   4216  MOL4216    -0.4105
  25647  H         47.6300    3.2200  137.7250 H     4216  MOL4216     0.2052
  25648  H         48.7440    4.3640  137.7830 H     4216  MOL4216     0.2052
  25649  O         58.6690   16.2470   77.6060 O.3   4217  MOL4217    -0.4105
  25650  H         58.8020   17.0610   77.0760 H     4217  MOL4217     0.2052
  25651  H         58.8700   15.4650   77.0290 H     4217  MOL4217     0.2052
  25652  O        157.8560  152.0780  284.3280 O.3   4218  MOL4218    -0.4105
  25653  H        157.1800  151.4680  284.6910 H     4218  MOL4218     0.2052
  25654  H        157.4200  152.9520  284.1490 H     4218  MOL4218     0.2052
  25655  O        185.7040   16.9700   38.5120 O.3   4219  MOL4219    -0.4105
  25656  H        185.2800   16.4560   37.7930 H     4219  MOL4219     0.2052
  25657  H        185.6100   17.9350   38.3000 H     4219  MOL4219     0.2052
  25658  O         83.9740  126.2800   22.8760 O.3   4220  MOL4220    -0.4105
  25659  H         84.9180  126.5390   22.8310 H     4220  MOL4220     0.2052
  25660  H         83.4240  127.1060   22.8590 H     4220  MOL4220     0.2052
  25661  O         14.1450   74.4540  117.7090 O.3   4221  MOL4221    -0.4105
  25662  H         14.1970   74.9060  116.8410 H     4221  MOL4221     0.2052
  25663  H         13.4480   73.7490  117.6510 H     4221  MOL4221     0.2052
  25664  O        135.8490  155.6780  263.6360 O.3   4222  MOL4222    -0.4105
  25665  H        136.5830  155.2430  263.1530 H     4222  MOL4222     0.2052
  25666  H        135.5710  155.0830  264.3800 H     4222  MOL4222     0.2052
  25667  O        177.7270  103.1170   76.7630 O.3   4223  MOL4223    -0.4105
  25668  H        177.9490  102.8310   75.8520 H     4223  MOL4223     0.2052
  25669  H        176.9530  102.5810   77.0770 H     4223  MOL4223     0.2052
  25670  O         78.3850   21.1620   21.9010 O.3   4224  MOL4224    -0.4105
  25671  H         78.4890   20.5890   21.1130 H     4224  MOL4224     0.2052
  25672  H         79.2400   21.1580   22.4040 H     4224  MOL4224     0.2052
  25673  O        134.9720   31.8790  286.9320 O.3   4225  MOL4225    -0.4105
  25674  H        134.1810   31.4990  286.4960 H     4225  MOL4225     0.2052
  25675  H        134.6700   32.5760  287.5700 H     4225  MOL4225     0.2052
  25676  O        144.6380   97.9170  297.7030 O.3   4226  MOL4226    -0.4105
  25677  H        145.2940   98.6430  297.6410 H     4226  MOL4226     0.2052
  25678  H        145.1110   97.0970  298.0010 H     4226  MOL4226     0.2052
  25679  O        107.1370   59.9130  186.6220 O.3   4227  MOL4227    -0.4105
  25680  H        107.8930   59.4110  186.2510 H     4227  MOL4227     0.2052
  25681  H        106.8300   59.4500  187.4440 H     4227  MOL4227     0.2052
  25682  O         84.7070   17.4920   47.8100 O.3   4228  MOL4228    -0.4105
  25683  H         83.7280   17.4490   47.8160 H     4228  MOL4228     0.2052
  25684  H         84.9810   18.2360   47.2130 H     4228  MOL4228     0.2052
  25685  O        163.1120  133.7280   14.6160 O.3   4229  MOL4229    -0.4105
  25686  H        163.9480  133.9860   15.0580 H     4229  MOL4229     0.2052
  25687  H        162.8360  132.8420   14.9670 H     4229  MOL4229     0.2052
  25688  O        160.8640   78.4470  223.0770 O.3   4230  MOL4230    -0.4105
  25689  H        160.6250   79.3930  223.1750 H     4230  MOL4230     0.2052
  25690  H        161.0830   78.2800  222.1230 H     4230  MOL4230     0.2052
  25691  O         57.4760  188.1450  245.1240 O.3   4231  MOL4231    -0.4105
  25692  H         57.2230  187.2840  244.7320 H     4231  MOL4231     0.2052
  25693  H         56.6580  188.6990  245.2120 H     4231  MOL4231     0.2052
  25694  O        186.7330   73.0680  174.0350 O.3   4232  MOL4232    -0.4105
  25695  H        186.0290   73.2780  174.6830 H     4232  MOL4232     0.2052
  25696  H        186.5260   73.5400  173.1870 H     4232  MOL4232     0.2052
  25697  O        195.1820    8.9280   41.1510 O.3   4233  MOL4233    -0.4105
  25698  H        194.7510    8.5460   41.9450 H     4233  MOL4233     0.2052
  25699  H        195.8260    8.2620   40.7970 H     4233  MOL4233     0.2052
  25700  O         18.9180   55.4050   44.0710 O.3   4234  MOL4234    -0.4105
  25701  H         18.6660   56.3250   44.2960 H     4234  MOL4234     0.2052
  25702  H         19.9080   55.3590   44.0170 H     4234  MOL4234     0.2052
  25703  O         94.9750   76.6370  275.6110 O.3   4235  MOL4235    -0.4105
  25704  H         95.3980   75.7920  275.8730 H     4235  MOL4235     0.2052
  25705  H         94.2310   76.8200  276.2410 H     4235  MOL4235     0.2052
  25706  O         32.7510   34.7930  210.5830 O.3   4236  MOL4236    -0.4105
  25707  H         32.7910   33.8210  210.4650 H     4236  MOL4236     0.2052
  25708  H         31.9020   35.0140  211.0470 H     4236  MOL4236     0.2052
  25709  O         12.0360  125.4620  116.3820 O.3   4237  MOL4237    -0.4105
  25710  H         11.0760  125.2840  116.2960 H     4237  MOL4237     0.2052
  25711  H         12.5080  124.5930  116.4580 H     4237  MOL4237     0.2052
  25712  O          9.6390  177.2610  135.6360 O.3   4238  MOL4238    -0.4105
  25713  H          9.4310  176.3210  135.8200 H     4238  MOL4238     0.2052
  25714  H          9.1060  177.5500  134.8510 H     4238  MOL4238     0.2052
  25715  O        185.7650  127.6160   17.2850 O.3   4239  MOL4239    -0.4105
  25716  H        185.9730  127.4870   16.3360 H     4239  MOL4239     0.2052
  25717  H        184.7790  127.6160   17.3900 H     4239  MOL4239     0.2052
  25718  O        102.6650  134.9700  240.2910 O.3   4240  MOL4240    -0.4105
  25719  H        101.9750  134.4950  240.8000 H     4240  MOL4240     0.2052
  25720  H        103.2370  135.4670  240.9310 H     4240  MOL4240     0.2052
  25721  O         52.4740  199.2210  151.0100 O.3   4241  MOL4241    -0.4105
  25722  H         51.8710  199.8140  150.5140 H     4241  MOL4241     0.2052
  25723  H         52.0810  198.3100  151.0110 H     4241  MOL4241     0.2052
  25724  O        171.5480   76.5810   94.8740 O.3   4242  MOL4242    -0.4105
  25725  H        172.2400   76.3510   94.2190 H     4242  MOL4242     0.2052
  25726  H        171.9010   76.3870   95.7800 H     4242  MOL4242     0.2052
  25727  O         26.8210   36.6910  217.6830 O.3   4243  MOL4243    -0.4105
  25728  H         26.5660   37.6230  217.5160 H     4243  MOL4243     0.2052
  25729  H         26.0360   36.1150  217.4930 H     4243  MOL4243     0.2052
  25730  O          7.3360  110.1880  206.0730 O.3   4244  MOL4244    -0.4105
  25731  H          7.3260  111.0370  205.5850 H     4244  MOL4244     0.2052
  25732  H          6.4030  109.8540  206.1340 H     4244  MOL4244     0.2052
  25733  O        165.5720  126.9600  297.2460 O.3   4245  MOL4245    -0.4105
  25734  H        165.3290  127.5790  297.9660 H     4245  MOL4245     0.2052
  25735  H        164.8650  126.2670  297.1800 H     4245  MOL4245     0.2052
  25736  O        139.0730  127.4080   19.3990 O.3   4246  MOL4246    -0.4105
  25737  H        139.6220  126.6630   19.0740 H     4246  MOL4246     0.2052
  25738  H        139.0360  127.3560   20.3890 H     4246  MOL4246     0.2052
  25739  O         97.6000  171.9200  218.9050 O.3   4247  MOL4247    -0.4105
  25740  H         97.3360  172.6150  219.5430 H     4247  MOL4247     0.2052
  25741  H         97.4020  171.0360  219.3100 H     4247  MOL4247     0.2052
  25742  O         18.5910  131.1810  186.3640 O.3   4248  MOL4248    -0.4105
  25743  H         17.9070  130.4920  186.5010 H     4248  MOL4248     0.2052
  25744  H         18.7050  131.3150  185.3870 H     4248  MOL4248     0.2052
  25745  O        192.2690   58.0010   50.8790 O.3   4249  MOL4249    -0.4105
  25746  H        192.5100   58.9510   50.8800 H     4249  MOL4249     0.2052
  25747  H        192.9920   57.4980   50.4230 H     4249  MOL4249     0.2052
  25748  O         85.2570   97.7080  250.9100 O.3   4250  MOL4250    -0.4105
  25749  H         84.4900   97.2680  250.4870 H     4250  MOL4250     0.2052
  25750  H         84.9150   98.3260  251.6070 H     4250  MOL4250     0.2052
  25751  O          0.8090  160.5280    0.8080 O.3   4251  MOL4251    -0.4105
  25752  H          0.0190  161.0420    0.5420 H     4251  MOL4251     0.2052
  25753  H          0.6490  159.5740    0.5840 H     4251  MOL4251     0.2052
  25754  O         82.2350  110.2820   33.2500 O.3   4252  MOL4252    -0.4105
  25755  H         81.7130  111.1100   33.3040 H     4252  MOL4252     0.2052
  25756  H         82.8020  110.3260   32.4370 H     4252  MOL4252     0.2052
  25757  O        158.1490   41.1500  275.1630 O.3   4253  MOL4253    -0.4105
  25758  H        158.9860   40.6890  274.9480 H     4253  MOL4253     0.2052
  25759  H        157.3950   40.5830  274.8560 H     4253  MOL4253     0.2052
  25760  O         61.1140   24.6410  223.9140 O.3   4254  MOL4254    -0.4105
  25761  H         61.8960   25.2320  223.9080 H     4254  MOL4254     0.2052
  25762  H         60.2980   25.2070  223.9080 H     4254  MOL4254     0.2052
  25763  O        176.6300  190.5350   56.2650 O.3   4255  MOL4255    -0.4105
  25764  H        176.3630  189.5940   56.1980 H     4255  MOL4255     0.2052
  25765  H        175.8230  191.0730   56.4750 H     4255  MOL4255     0.2052
  25766  O        156.6930  173.3550   35.8180 O.3   4256  MOL4256    -0.4105
  25767  H        156.3890  172.4260   35.9000 H     4256  MOL4256     0.2052
  25768  H        157.5850  173.3520   35.3840 H     4256  MOL4256     0.2052
  25769  O         15.9400  110.6270  256.8520 O.3   4257  MOL4257    -0.4105
  25770  H         15.1200  110.7420  257.3770 H     4257  MOL4257     0.2052
  25771  H         16.0210  111.3970  256.2310 H     4257  MOL4257     0.2052
  25772  O        132.3730  130.1180    0.1470 O.3   4258  MOL4258    -0.4105
  25773  H        132.1570  129.3490    0.7150 H     4258  MOL4258     0.2052
  25774  H        132.8170  130.8040    0.7100 H     4258  MOL4258     0.2052
  25775  O        136.8450   30.6440   69.1040 O.3   4259  MOL4259    -0.4105
  25776  H        135.9040   30.4860   68.8790 H     4259  MOL4259     0.2052
  25777  H        137.1040   31.5340   68.7500 H     4259  MOL4259     0.2052
  25778  O         69.4400  122.8100   23.2730 O.3   4260  MOL4260    -0.4105
  25779  H         69.1300  123.4200   23.9740 H     4260  MOL4260     0.2052
  25780  H         68.9450  121.9540   23.3660 H     4260  MOL4260     0.2052
  25781  O          8.0560  140.9530  247.4970 O.3   4261  MOL4261    -0.4105
  25782  H          7.0920  140.8050  247.4050 H     4261  MOL4261     0.2052
  25783  H          8.4510  140.1620  247.9460 H     4261  MOL4261     0.2052
  25784  O         41.2920  176.7620  104.6510 O.3   4262  MOL4262    -0.4105
  25785  H         40.7070  177.2960  105.2280 H     4262  MOL4262     0.2052
  25786  H         41.6590  177.3560  103.9460 H     4262  MOL4262     0.2052
  25787  O        122.3690   96.1640  187.1190 O.3   4263  MOL4263    -0.4105
  25788  H        122.5550   95.2840  186.7290 H     4263  MOL4263     0.2052
  25789  H        123.2320   96.6400  187.2360 H     4263  MOL4263     0.2052
  25790  O        186.2770   97.7810   67.7340 O.3   4264  MOL4264    -0.4105
  25791  H        186.1380   98.3440   68.5240 H     4264  MOL4264     0.2052
  25792  H        187.1600   98.0080   67.3410 H     4264  MOL4264     0.2052
  25793  O         60.2760  171.6590  148.8940 O.3   4265  MOL4265    -0.4105
  25794  H         60.6010  172.2140  148.1550 H     4265  MOL4265     0.2052
  25795  H         59.4920  172.1110  149.3000 H     4265  MOL4265     0.2052
  25796  O         42.9460  178.9910  286.2360 O.3   4266  MOL4266    -0.4105
  25797  H         43.5440  178.2490  286.0080 H     4266  MOL4266     0.2052
  25798  H         42.0230  178.6350  286.3110 H     4266  MOL4266     0.2052
  25799  O         21.6780   59.6510   68.0510 O.3   4267  MOL4267    -0.4105
  25800  H         20.7110   59.5050   68.1120 H     4267  MOL4267     0.2052
  25801  H         21.9360   60.3190   68.7390 H     4267  MOL4267     0.2052
  25802  O        145.6300   60.5820   41.3630 O.3   4268  MOL4268    -0.4105
  25803  H        146.5050   60.7500   41.7730 H     4268  MOL4268     0.2052
  25804  H        144.9280   60.8220   42.0210 H     4268  MOL4268     0.2052
  25805  O        152.3480   99.0470  273.8360 O.3   4269  MOL4269    -0.4105
  25806  H        152.8690   99.8780  273.8490 H     4269  MOL4269     0.2052
  25807  H        152.1150   98.8120  274.7710 H     4269  MOL4269     0.2052
  25808  O         44.3610   35.0690   24.6010 O.3   4270  MOL4270    -0.4105
  25809  H         45.0650   34.3900   24.6700 H     4270  MOL4270     0.2052
  25810  H         44.7660   35.9550   24.7860 H     4270  MOL4270     0.2052
  25811  O        191.8730   78.3580  101.3440 O.3   4271  MOL4271    -0.4105
  25812  H        192.3420   78.4720  102.1970 H     4271  MOL4271     0.2052
  25813  H        192.3730   77.6960  100.8000 H     4271  MOL4271     0.2052
  25814  O         38.6980   84.3510  235.9920 O.3   4272  MOL4272    -0.4105
  25815  H         38.1890   85.1030  235.6230 H     4272  MOL4272     0.2052
  25816  H         38.2790   84.0850  236.8520 H     4272  MOL4272     0.2052
  25817  O        169.9500  120.6560  169.2480 O.3   4273  MOL4273    -0.4105
  25818  H        170.8050  121.1320  169.2900 H     4273  MOL4273     0.2052
  25819  H        170.1280  119.7230  168.9580 H     4273  MOL4273     0.2052
  25820  O         42.6020   28.3900   42.7910 O.3   4274  MOL4274    -0.4105
  25821  H         43.1220   29.0270   43.3250 H     4274  MOL4274     0.2052
  25822  H         43.0430   27.5030   42.8490 H     4274  MOL4274     0.2052
  25823  O         16.4900   75.0130   46.7740 O.3   4275  MOL4275    -0.4105
  25824  H         15.7580   74.6360   46.2430 H     4275  MOL4275     0.2052
  25825  H         16.3140   74.8160   47.7310 H     4275  MOL4275     0.2052
  25826  O        190.5060  154.6150  165.1570 O.3   4276  MOL4276    -0.4105
  25827  H        189.5650  154.6840  165.4240 H     4276  MOL4276     0.2052
  25828  H        190.5390  154.3290  164.2080 H     4276  MOL4276     0.2052
  25829  O         33.5620   39.6850  279.7760 O.3   4277  MOL4277    -0.4105
  25830  H         33.0930   39.1760  280.4700 H     4277  MOL4277     0.2052
  25831  H         32.9650   40.4160  279.4700 H     4277  MOL4277     0.2052
  25832  O         31.5950  131.1770  197.3830 O.3   4278  MOL4278    -0.4105
  25833  H         31.3390  130.4540  197.9930 H     4278  MOL4278     0.2052
  25834  H         31.7220  132.0030  197.9170 H     4278  MOL4278     0.2052
  25835  O        134.3670  194.6210  269.6070 O.3   4279  MOL4279    -0.4105
  25836  H        135.0630  193.9390  269.5050 H     4279  MOL4279     0.2052
  25837  H        134.7860  195.4400  269.9800 H     4279  MOL4279     0.2052
  25838  O          1.2620    8.0690  286.1700 O.3   4280  MOL4280    -0.4105
  25839  H          1.0120    9.0120  286.0800 H     4280  MOL4280     0.2052
  25840  H          1.2210    7.6490  285.2720 H     4280  MOL4280     0.2052
  25841  O          0.9040    9.8240  276.1650 O.3   4281  MOL4281    -0.4105
  25842  H          0.0020    9.4810  276.3380 H     4281  MOL4281     0.2052
  25843  H          1.5390    9.3350  276.7510 H     4281  MOL4281     0.2052
  25844  O         60.0550  193.0940   78.6000 O.3   4282  MOL4282    -0.4105
  25845  H         60.6200  192.5290   78.0320 H     4282  MOL4282     0.2052
  25846  H         60.4080  194.0200   78.5670 H     4282  MOL4282     0.2052
  25847  O         13.0660   96.7910  161.4230 O.3   4283  MOL4283    -0.4105
  25848  H         13.8020   96.2180  161.7220 H     4283  MOL4283     0.2052
  25849  H         12.3590   96.2130  161.0350 H     4283  MOL4283     0.2052
  25850  O        148.1410   94.2570  225.1360 O.3   4284  MOL4284    -0.4105
  25851  H        148.0100   94.9240  224.4300 H     4284  MOL4284     0.2052
  25852  H        148.4420   93.4110  224.7120 H     4284  MOL4284     0.2052
  25853  O        106.2260  147.7910  200.2630 O.3   4285  MOL4285    -0.4105
  25854  H        105.7810  147.1250  199.6970 H     4285  MOL4285     0.2052
  25855  H        107.2050  147.6350  200.2130 H     4285  MOL4285     0.2052
  25856  O         25.7500  185.7800   70.6100 O.3   4286  MOL4286    -0.4105
  25857  H         25.8290  184.9810   71.1720 H     4286  MOL4286     0.2052
  25858  H         25.5260  186.5500   71.1950 H     4286  MOL4286     0.2052
  25859  O         10.3540  100.6670   73.6840 O.3   4287  MOL4287    -0.4105
  25860  H          9.6440  100.2070   74.1800 H     4287  MOL4287     0.2052
  25861  H         11.0130  101.0170   74.3390 H     4287  MOL4287     0.2052
  25862  O        130.4670    1.3890  207.2830 O.3   4288  MOL4288    -0.4105
  25863  H        129.7330    1.0080  206.7580 H     4288  MOL4288     0.2052
  25864  H        130.6690    0.7680  208.0300 H     4288  MOL4288     0.2052
  25865  O        191.5770  147.5210  129.3810 O.3   4289  MOL4289    -0.4105
  25866  H        191.4460  148.4880  129.4680 H     4289  MOL4289     0.2052
  25867  H        190.6940  147.1030  129.2060 H     4289  MOL4289     0.2052
  25868  O         39.4290  145.7300   51.4880 O.3   4290  MOL4290    -0.4105
  25869  H         39.1900  146.6730   51.3720 H     4290  MOL4290     0.2052
  25870  H         40.4160  145.6660   51.5620 H     4290  MOL4290     0.2052
  25871  O         99.4630  151.0380   86.9350 O.3   4291  MOL4291    -0.4105
  25872  H         98.7830  150.5050   87.3970 H     4291  MOL4291     0.2052
  25873  H         99.1190  151.9640   86.8380 H     4291  MOL4291     0.2052
  25874  O         50.6810   97.8400   14.6140 O.3   4292  MOL4292    -0.4105
  25875  H         50.4480   97.8470   13.6620 H     4292  MOL4292     0.2052
  25876  H         49.9680   97.3540   15.1050 H     4292  MOL4292     0.2052
  25877  O        196.3820   55.1180  252.7710 O.3   4293  MOL4293    -0.4105
  25878  H        197.2460   55.5810  252.7500 H     4293  MOL4293     0.2052
  25879  H        196.5530   54.1460  252.8740 H     4293  MOL4293     0.2052
  25880  O         22.1330  172.9240   67.5760 O.3   4294  MOL4294    -0.4105
  25881  H         22.4370  171.9970   67.4760 H     4294  MOL4294     0.2052
  25882  H         21.1660  172.9580   67.3590 H     4294  MOL4294     0.2052
  25883  O        114.0730   57.1550  294.9440 O.3   4295  MOL4295    -0.4105
  25884  H        113.8650   58.0130  294.5180 H     4295  MOL4295     0.2052
  25885  H        113.7000   57.1650  295.8630 H     4295  MOL4295     0.2052
  25886  O        110.0120  193.0760   65.3130 O.3   4296  MOL4296    -0.4105
  25887  H        109.8330  194.0300   65.1750 H     4296  MOL4296     0.2052
  25888  H        109.2100  192.6670   65.7300 H     4296  MOL4296     0.2052
  25889  O         14.2940  198.7160   58.2000 O.3   4297  MOL4297    -0.4105
  25890  H         13.3310  198.5390   58.1720 H     4297  MOL4297     0.2052
  25891  H         14.5440  199.2070   57.3740 H     4297  MOL4297     0.2052
  25892  O        137.2980   52.3720  276.2860 O.3   4298  MOL4298    -0.4105
  25893  H        137.6070   52.7420  277.1390 H     4298  MOL4298     0.2052
  25894  H        136.5820   51.7120  276.4750 H     4298  MOL4298     0.2052
  25895  O         79.2940  164.0030  253.9230 O.3   4299  MOL4299    -0.4105
  25896  H         79.2550  164.6130  253.1560 H     4299  MOL4299     0.2052
  25897  H         80.0190  164.3100  254.5270 H     4299  MOL4299     0.2052
  25898  O         23.0000  117.6710  279.8480 O.3   4300  MOL4300    -0.4105
  25899  H         23.0600  116.7360  280.1360 H     4300  MOL4300     0.2052
  25900  H         22.0750  117.9890  280.0180 H     4300  MOL4300     0.2052
  25901  O        172.0970    0.8050   27.1500 O.3   4301  MOL4301    -0.4105
  25902  H        172.0180    0.0060   26.5890 H     4301  MOL4301     0.2052
  25903  H        171.2120    1.2530   27.1800 H     4301  MOL4301     0.2052
  25904  O        102.8460  139.8930   58.5700 O.3   4302  MOL4302    -0.4105
  25905  H        103.1750  140.5180   59.2500 H     4302  MOL4302     0.2052
  25906  H        101.9630  140.2170   58.2530 H     4302  MOL4302     0.2052
  25907  O        152.6860   46.9440  190.6590 O.3   4303  MOL4303    -0.4105
  25908  H        152.1400   47.4670  191.2830 H     4303  MOL4303     0.2052
  25909  H        152.0880   46.3240  190.1670 H     4303  MOL4303     0.2052
  25910  O        127.5120   97.9490  200.6870 O.3   4304  MOL4304    -0.4105
  25911  H        127.4090   97.6440  201.6130 H     4304  MOL4304     0.2052
  25912  H        126.8920   97.4260  200.1170 H     4304  MOL4304     0.2052
  25913  O        100.5600   69.1800  265.5020 O.3   4305  MOL4305    -0.4105
  25914  H        100.9010   68.2880  265.7220 H     4305  MOL4305     0.2052
  25915  H        100.4690   69.6940  266.3460 H     4305  MOL4305     0.2052
  25916  O         68.7280    6.9130  137.4240 O.3   4306  MOL4306    -0.4105
  25917  H         68.5260    6.1960  136.7870 H     4306  MOL4306     0.2052
  25918  H         68.9250    7.7390  136.9110 H     4306  MOL4306     0.2052
  25919  O        190.1290  103.9220  149.3570 O.3   4307  MOL4307    -0.4105
  25920  H        189.2200  104.1590  149.0770 H     4307  MOL4307     0.2052
  25921  H        190.7690  104.4240  148.7890 H     4307  MOL4307     0.2052
  25922  O         50.9750   80.9060   38.3200 O.3   4308  MOL4308    -0.4105
  25923  H         50.1310   80.7030   37.8650 H     4308  MOL4308     0.2052
  25924  H         50.9290   81.8390   38.6560 H     4308  MOL4308     0.2052
  25925  O         14.2830  127.8740    7.9020 O.3   4309  MOL4309    -0.4105
  25926  H         14.7120  128.7550    7.9440 H     4309  MOL4309     0.2052
  25927  H         14.9790  127.1830    8.0510 H     4309  MOL4309     0.2052
  25928  O        163.2590   66.2590  245.4310 O.3   4310  MOL4310    -0.4105
  25929  H        163.0500   67.1600  245.7560 H     4310  MOL4310     0.2052
  25930  H        162.4090   65.7540  245.3490 H     4310  MOL4310     0.2052
  25931  O        104.9330   48.8330    5.2980 O.3   4311  MOL4311    -0.4105
  25932  H        105.5860   49.4010    5.7580 H     4311  MOL4311     0.2052
  25933  H        104.5660   48.1870    5.9560 H     4311  MOL4311     0.2052
  25934  O         51.7940   37.3880  239.6110 O.3   4312  MOL4312    -0.4105
  25935  H         52.2850   36.6620  240.0490 H     4312  MOL4312     0.2052
  25936  H         52.4130   38.1550  239.4950 H     4312  MOL4312     0.2052
  25937  O        137.0270   38.0960  285.7180 O.3   4313  MOL4313    -0.4105
  25938  H        136.8630   37.3140  285.1520 H     4313  MOL4313     0.2052
  25939  H        136.1510   38.5040  285.9450 H     4313  MOL4313     0.2052
  25940  O        125.0880  191.9550   39.5540 O.3   4314  MOL4314    -0.4105
  25941  H        125.3310  192.8500   39.2370 H     4314  MOL4314     0.2052
  25942  H        124.2450  192.0270   40.0730 H     4314  MOL4314     0.2052
  25943  O         24.2270  176.4730  213.7330 O.3   4315  MOL4315    -0.4105
  25944  H         23.5020  176.7910  214.3100 H     4315  MOL4315     0.2052
  25945  H         24.3220  177.1070  212.9760 H     4315  MOL4315     0.2052
  25946  O         44.6600    6.3540  294.9140 O.3   4316  MOL4316    -0.4105
  25947  H         45.1760    6.7010  294.1570 H     4316  MOL4316     0.2052
  25948  H         43.9210    6.9890  295.1030 H     4316  MOL4316     0.2052
  25949  O         88.4690   19.4670  175.9420 O.3   4317  MOL4317    -0.4105
  25950  H         89.1460   19.7640  176.5860 H     4317  MOL4317     0.2052
  25951  H         87.6490   19.2250  176.4440 H     4317  MOL4317     0.2052
  25952  O         62.0510  182.6890  163.3650 O.3   4318  MOL4318    -0.4105
  25953  H         61.8620  183.6310  163.5580 H     4318  MOL4318     0.2052
  25954  H         61.1890  182.1980  163.3380 H     4318  MOL4318     0.2052
  25955  O        179.7210  123.0070  244.9060 O.3   4319  MOL4319    -0.4105
  25956  H        178.9680  123.3950  245.3990 H     4319  MOL4319     0.2052
  25957  H        179.5620  123.1460  243.9370 H     4319  MOL4319     0.2052
  25958  O         19.3740  167.3220   71.0910 O.3   4320  MOL4320    -0.4105
  25959  H         18.9770  166.6420   71.6750 H     4320  MOL4320     0.2052
  25960  H         19.8870  166.8590   70.3800 H     4320  MOL4320     0.2052
  25961  O        122.9570  104.8120   48.1420 O.3   4321  MOL4321    -0.4105
  25962  H        123.1170  103.8470   48.2020 H     4321  MOL4321     0.2052
  25963  H        123.2330  105.2260   49.0000 H     4321  MOL4321     0.2052
  25964  O         97.5160  161.6600   93.4120 O.3   4322  MOL4322    -0.4105
  25965  H         98.1340  161.6760   94.1730 H     4322  MOL4322     0.2052
  25966  H         97.2350  162.5920   93.2200 H     4322  MOL4322     0.2052
  25967  O        161.8530  198.9550  283.1050 O.3   4323  MOL4323    -0.4105
  25968  H        161.9070  199.9310  283.1650 H     4323  MOL4323     0.2052
  25969  H        162.2960  198.5700  283.9050 H     4323  MOL4323     0.2052
  25970  O         14.9070    6.0040  193.6580 O.3   4324  MOL4324    -0.4105
  25971  H         14.4430    6.8570  193.5230 H     4324  MOL4324     0.2052
  25972  H         14.9040    5.5090  192.7980 H     4324  MOL4324     0.2052
  25973  O        171.2300  117.7580   51.8960 O.3   4325  MOL4325    -0.4105
  25974  H        171.4240  116.9490   52.4140 H     4325  MOL4325     0.2052
  25975  H        172.0640  118.0380   51.4360 H     4325  MOL4325     0.2052
  25976  O          1.1730  137.1340  206.4710 O.3   4326  MOL4326    -0.4105
  25977  H          0.2280  136.8800  206.5220 H     4326  MOL4326     0.2052
  25978  H          1.2270  138.1240  206.4330 H     4326  MOL4326     0.2052
  25979  O        145.5080  144.5640  275.2570 O.3   4327  MOL4327    -0.4105
  25980  H        144.6010  144.2410  275.4430 H     4327  MOL4327     0.2052
  25981  H        145.4540  145.5280  275.0300 H     4327  MOL4327     0.2052
  25982  O        188.9160   72.7930   24.7930 O.3   4328  MOL4328    -0.4105
  25983  H        189.0100   72.9820   25.7500 H     4328  MOL4328     0.2052
  25984  H        189.3170   71.9040   24.6120 H     4328  MOL4328     0.2052
  25985  O        196.9150   49.1220  292.9910 O.3   4329  MOL4329    -0.4105
  25986  H        196.4760   49.2810  292.1290 H     4329  MOL4329     0.2052
  25987  H        196.3500   48.4990  293.5170 H     4329  MOL4329     0.2052
  25988  O        123.8270   55.9590   31.5870 O.3   4330  MOL4330    -0.4105
  25989  H        124.5600   56.6010   31.6890 H     4330  MOL4330     0.2052
  25990  H        123.0370   56.3110   32.0720 H     4330  MOL4330     0.2052
  25991  O        102.1120   26.9440  290.6740 O.3   4331  MOL4331    -0.4105
  25992  H        102.1640   26.0670  291.1080 H     4331  MOL4331     0.2052
  25993  H        102.8290   27.5180  291.0480 H     4331  MOL4331     0.2052
  25994  O         56.1700   30.1090   11.0900 O.3   4332  MOL4332    -0.4105
  25995  H         56.3960   29.1800   10.8710 H     4332  MOL4332     0.2052
  25996  H         55.2010   30.2400   10.9200 H     4332  MOL4332     0.2052
  25997  O         17.1980  176.1140   34.6160 O.3   4333  MOL4333    -0.4105
  25998  H         16.9950  175.4060   33.9700 H     4333  MOL4333     0.2052
  25999  H         16.3410  176.4530   34.9850 H     4333  MOL4333     0.2052
  26000  O        109.6110   71.5850  268.9610 O.3   4334  MOL4334    -0.4105
  26001  H        110.5820   71.5130  268.8560 H     4334  MOL4334     0.2052
  26002  H        109.2170   70.6820  268.8400 H     4334  MOL4334     0.2052
  26003  O        192.4980  149.1530   52.0570 O.3   4335  MOL4335    -0.4105
  26004  H        193.4560  148.9470   52.0610 H     4335  MOL4335     0.2052
  26005  H        192.0120  148.3620   51.7080 H     4335  MOL4335     0.2052
  26006  O        170.3160  176.4750  130.0360 O.3   4336  MOL4336    -0.4105
  26007  H        170.2300  177.2720  129.4720 H     4336  MOL4336     0.2052
  26008  H        169.8360  175.7280  129.5930 H     4336  MOL4336     0.2052
  26009  O         93.7290  179.1030  103.7320 O.3   4337  MOL4337    -0.4105
  26010  H         93.4280  178.2010  103.9680 H     4337  MOL4337     0.2052
  26011  H         94.7170  179.1310  103.8100 H     4337  MOL4337     0.2052
  26012  O        154.5780  174.7090  129.4310 O.3   4338  MOL4338    -0.4105
  26013  H        153.8580  174.9810  130.0380 H     4338  MOL4338     0.2052
  26014  H        154.5400  175.2870  128.6250 H     4338  MOL4338     0.2052
  26015  O        166.0410  149.3520  185.2110 O.3   4339  MOL4339    -0.4105
  26016  H        166.1600  148.3850  185.3160 H     4339  MOL4339     0.2052
  26017  H        166.9330  149.7600  185.0610 H     4339  MOL4339     0.2052
  26018  O         23.8490  122.4960   97.8040 O.3   4340  MOL4340    -0.4105
  26019  H         23.8610  123.4230   97.4870 H     4340  MOL4340     0.2052
  26020  H         22.9050  122.2350   97.9640 H     4340  MOL4340     0.2052
  26021  O         51.1400   84.1150  167.2810 O.3   4341  MOL4341    -0.4105
  26022  H         51.2480   83.1430  167.2230 H     4341  MOL4341     0.2052
  26023  H         50.1690   84.3190  167.3050 H     4341  MOL4341     0.2052
  26024  O        158.5850   40.1290   62.1790 O.3   4342  MOL4342    -0.4105
  26025  H        158.8110   39.8580   63.0930 H     4342  MOL4342     0.2052
  26026  H        159.3620   40.6150   61.7980 H     4342  MOL4342     0.2052
  26027  O        187.0090   95.3100  270.7180 O.3   4343  MOL4343    -0.4105
  26028  H        187.3900   96.0320  271.2600 H     4343  MOL4343     0.2052
  26029  H        186.5990   95.7120  269.9090 H     4343  MOL4343     0.2052
  26030  O         81.3760  190.1990  121.9400 O.3   4344  MOL4344    -0.4105
  26031  H         80.9650  191.0850  121.8580 H     4344  MOL4344     0.2052
  26032  H         82.3580  190.3190  122.0190 H     4344  MOL4344     0.2052
  26033  O        106.4920  126.0490  221.6160 O.3   4345  MOL4345    -0.4105
  26034  H        106.7230  126.5980  220.8380 H     4345  MOL4345     0.2052
  26035  H        107.1530  125.3120  221.6830 H     4345  MOL4345     0.2052
  26036  O         32.9250   81.6900   85.3550 O.3   4346  MOL4346    -0.4105
  26037  H         33.5840   81.6940   86.0800 H     4346  MOL4346     0.2052
  26038  H         33.4100   81.5840   84.4960 H     4346  MOL4346     0.2052
  26039  O        162.6300  137.5490  224.1080 O.3   4347  MOL4347    -0.4105
  26040  H        161.7950  137.6440  223.6030 H     4347  MOL4347     0.2052
  26041  H        163.3810  137.5130  223.4610 H     4347  MOL4347     0.2052
  26042  O        148.0860   78.8500  218.7160 O.3   4348  MOL4348    -0.4105
  26043  H        147.8870   79.4180  217.9430 H     4348  MOL4348     0.2052
  26044  H        147.7560   79.3080  219.5320 H     4348  MOL4348     0.2052
  26045  O        109.9930  198.0530  114.0240 O.3   4349  MOL4349    -0.4105
  26046  H        110.3830  198.6590  114.6880 H     4349  MOL4349     0.2052
  26047  H        110.7330  197.5920  113.5510 H     4349  MOL4349     0.2052
  26048  O        100.9020   22.2270  124.0120 O.3   4350  MOL4350    -0.4105
  26049  H        101.1380   21.2750  124.0030 H     4350  MOL4350     0.2052
  26050  H        101.7410   22.7550  123.9820 H     4350  MOL4350     0.2052
  26051  O         15.5630   46.8800  110.3140 O.3   4351  MOL4351    -0.4105
  26052  H         15.5630   47.7750  109.9150 H     4351  MOL4351     0.2052
  26053  H         14.8080   46.3670  109.9260 H     4351  MOL4351     0.2052
  26054  O        120.4390  175.5470   92.1000 O.3   4352  MOL4352    -0.4105
  26055  H        120.1220  174.6200   92.1000 H     4352  MOL4352     0.2052
  26056  H        121.4310  175.5350   92.0990 H     4352  MOL4352     0.2052
  26057  O        175.1090   20.3950   55.9190 O.3   4353  MOL4353    -0.4105
  26058  H        175.2990   20.9580   56.6980 H     4353  MOL4353     0.2052
  26059  H        175.9630   19.9950   55.6100 H     4353  MOL4353     0.2052
  26060  O        156.7180   47.1680  141.6370 O.3   4354  MOL4354    -0.4105
  26061  H        155.9070   46.7900  141.2370 H     4354  MOL4354     0.2052
  26062  H        156.8590   48.0730  141.2550 H     4354  MOL4354     0.2052
  26063  O        161.2730   42.0080   45.4180 O.3   4355  MOL4355    -0.4105
  26064  H        161.3190   42.7150   46.0950 H     4355  MOL4355     0.2052
  26065  H        161.3520   41.1320   45.8770 H     4355  MOL4355     0.2052
  26066  O         16.9990   32.8470    1.5840 O.3   4356  MOL4356    -0.4105
  26067  H         17.9070   33.2160    1.5600 H     4356  MOL4356     0.2052
  26068  H         16.3570   33.6030    1.6010 H     4356  MOL4356     0.2052
  26069  O        194.6900  107.8390  190.5000 O.3   4357  MOL4357    -0.4105
  26070  H        195.3030  107.8310  191.2650 H     4357  MOL4357     0.2052
  26071  H        193.8860  107.3090  190.7420 H     4357  MOL4357     0.2052
  26072  O        112.2010   20.0840   93.9920 O.3   4358  MOL4358    -0.4105
  26073  H        111.5770   20.5240   93.3770 H     4358  MOL4358     0.2052
  26074  H        111.8000   20.0920   94.9000 H     4358  MOL4358     0.2052
  26075  O         10.4150   59.0780  165.4370 O.3   4359  MOL4359    -0.4105
  26076  H          9.4550   59.2590  165.5110 H     4359  MOL4359     0.2052
  26077  H         10.5450   58.0940  165.4230 H     4359  MOL4359     0.2052
  26078  O         68.5810  136.1820  276.3310 O.3   4360  MOL4360    -0.4105
  26079  H         68.8520  136.4390  275.4250 H     4360  MOL4360     0.2052
  26080  H         67.7690  136.6990  276.5710 H     4360  MOL4360     0.2052
  26081  O         33.2260  184.8570   52.0040 O.3   4361  MOL4361    -0.4105
  26082  H         32.2610  184.9510   52.1480 H     4361  MOL4361     0.2052
  26083  H         33.6560  185.7290   52.2030 H     4361  MOL4361     0.2052
  26084  O        152.1710   55.8200  293.8700 O.3   4362  MOL4362    -0.4105
  26085  H        151.5020   55.2030  294.2320 H     4362  MOL4362     0.2052
  26086  H        151.7220   56.6810  293.6660 H     4362  MOL4362     0.2052
  26087  O         87.8850  183.6860   30.4960 O.3   4363  MOL4363    -0.4105
  26088  H         87.3670  184.4490   30.1640 H     4363  MOL4363     0.2052
  26089  H         88.7150  184.0320   30.9140 H     4363  MOL4363     0.2052
  26090  O         40.4770  129.4030   69.2610 O.3   4364  MOL4364    -0.4105
  26091  H         39.6330  129.0910   68.8740 H     4364  MOL4364     0.2052
  26092  H         40.3800  129.4150   70.2490 H     4364  MOL4364     0.2052
  26093  O        191.7920   27.1280  260.8250 O.3   4365  MOL4365    -0.4105
  26094  H        191.9020   27.7770  260.0990 H     4365  MOL4365     0.2052
  26095  H        190.8260   27.0700  261.0460 H     4365  MOL4365     0.2052
  26096  O        169.2000  158.9190  140.8950 O.3   4366  MOL4366    -0.4105
  26097  H        169.5210  159.8440  140.8410 H     4366  MOL4366     0.2052
  26098  H        169.7950  158.3510  140.3420 H     4366  MOL4366     0.2052
  26099  O         66.5300  148.2600  199.4690 O.3   4367  MOL4367    -0.4105
  26100  H         66.1370  148.4990  200.3350 H     4367  MOL4367     0.2052
  26101  H         66.2770  147.3230  199.2620 H     4367  MOL4367     0.2052
  26102  O          0.9460   62.8210  176.4590 O.3   4368  MOL4368    -0.4105
  26103  H          1.9180   62.7000  176.4810 H     4368  MOL4368     0.2052
  26104  H          0.7540   63.7940  176.4820 H     4368  MOL4368     0.2052
  26105  O        110.2840  169.6390    9.8930 O.3   4369  MOL4369    -0.4105
  26106  H        110.6060  170.4340   10.3660 H     4369  MOL4369     0.2052
  26107  H        111.0390  169.2610    9.3710 H     4369  MOL4369     0.2052
  26108  O         94.5890   48.3950  261.2000 O.3   4370  MOL4370    -0.4105
  26109  H         93.9140   48.2440  261.8950 H     4370  MOL4370     0.2052
  26110  H         94.7400   47.5370  260.7240 H     4370  MOL4370     0.2052
  26111  O        157.4120  101.0140  286.5900 O.3   4371  MOL4371    -0.4105
  26112  H        158.2160  100.5280  286.3110 H     4371  MOL4371     0.2052
  26113  H        157.6570  101.9650  286.7330 H     4371  MOL4371     0.2052
  26114  O         49.3890  169.1140   50.6420 O.3   4372  MOL4372    -0.4105
  26115  H         48.7510  169.1010   51.3860 H     4372  MOL4372     0.2052
  26116  H         50.1370  169.7190   50.8850 H     4372  MOL4372     0.2052
  26117  O         15.6020   73.7430    4.4200 O.3   4373  MOL4373    -0.4105
  26118  H         15.1500   72.8930    4.6000 H     4373  MOL4373     0.2052
  26119  H         15.0240   74.4780    4.7540 H     4373  MOL4373     0.2052
  26120  O        127.2900  114.9580   63.9500 O.3   4374  MOL4374    -0.4105
  26121  H        126.4950  114.3850   63.9620 H     4374  MOL4374     0.2052
  26122  H        127.0540  115.8250   64.3710 H     4374  MOL4374     0.2052
  26123  O        135.3990   75.0100   34.6880 O.3   4375  MOL4375    -0.4105
  26124  H        135.6090   75.9220   34.9770 H     4375  MOL4375     0.2052
  26125  H        136.2530   74.5320   34.5230 H     4375  MOL4375     0.2052
  26126  O        119.7050   62.0590   74.1490 O.3   4376  MOL4376    -0.4105
  26127  H        119.6490   62.9560   73.7590 H     4376  MOL4376     0.2052
  26128  H        120.2710   61.4980   73.5580 H     4376  MOL4376     0.2052
  26129  O        197.2280   26.5150   79.0150 O.3   4377  MOL4377    -0.4105
  26130  H        196.3080   26.3240   79.2940 H     4377  MOL4377     0.2052
  26131  H        197.2960   27.4840   78.8130 H     4377  MOL4377     0.2052
  26132  O        193.1430  179.2070  116.6580 O.3   4378  MOL4378    -0.4105
  26133  H        192.4470  179.6040  117.2220 H     4378  MOL4378     0.2052
  26134  H        193.9330  179.0160  117.2280 H     4378  MOL4378     0.2052
  26135  O        183.4520   52.4190  275.4610 O.3   4379  MOL4379    -0.4105
  26136  H        183.7060   51.6170  275.9640 H     4379  MOL4379     0.2052
  26137  H        183.4900   53.1960  276.0760 H     4379  MOL4379     0.2052
  26138  O        122.1140   17.7900  247.6910 O.3   4380  MOL4380    -0.4105
  26139  H        122.0760   17.1140  248.3990 H     4380  MOL4380     0.2052
  26140  H        123.0180   18.2000  247.7030 H     4380  MOL4380     0.2052
  26141  O        186.2670  132.1110  288.2910 O.3   4381  MOL4381    -0.4105
  26142  H        187.2290  132.2890  288.3400 H     4381  MOL4381     0.2052
  26143  H        185.7920  132.9810  288.2410 H     4381  MOL4381     0.2052
  26144  O         54.4410   13.6090   22.6310 O.3   4382  MOL4382    -0.4105
  26145  H         54.6280   14.5660   22.7260 H     4382  MOL4382     0.2052
  26146  H         55.2670   13.1610   22.3130 H     4382  MOL4382     0.2052
  26147  O        125.8450  189.0040  234.5840 O.3   4383  MOL4383    -0.4105
  26148  H        126.3820  188.1950  234.7130 H     4383  MOL4383     0.2052
  26149  H        126.4430  189.7910  234.6730 H     4383  MOL4383     0.2052
  26150  O          6.2720  178.5340   44.2620 O.3   4384  MOL4384    -0.4105
  26151  H          7.0600  178.5950   44.8410 H     4384  MOL4384     0.2052
  26152  H          5.6140  179.2140   44.5590 H     4384  MOL4384     0.2052
  26153  O        130.9760   87.0850   49.0010 O.3   4385  MOL4385    -0.4105
  26154  H        131.0790   88.0600   48.9990 H     4385  MOL4385     0.2052
  26155  H        130.0060   86.8760   49.0390 H     4385  MOL4385     0.2052
  26156  O        186.5840   19.5890  129.9880 O.3   4386  MOL4386    -0.4105
  26157  H        186.2670   18.6700  130.1080 H     4386  MOL4386     0.2052
  26158  H        187.5770   19.5760  129.9810 H     4386  MOL4386     0.2052
  26159  O         82.0060   92.9400   30.5000 O.3   4387  MOL4387    -0.4105
  26160  H         81.7060   93.2900   29.6360 H     4387  MOL4387     0.2052
  26161  H         81.8280   91.9640   30.5190 H     4387  MOL4387     0.2052
  26162  O         44.1860  185.8760  208.8810 O.3   4388  MOL4388    -0.4105
  26163  H         43.8160  186.6210  209.3990 H     4388  MOL4388     0.2052
  26164  H         44.8910  185.4380  209.4260 H     4388  MOL4388     0.2052
  26165  O         79.2070   65.6010   30.6270 O.3   4389  MOL4389    -0.4105
  26166  H         79.8350   66.3320   30.8050 H     4389  MOL4389     0.2052
  26167  H         78.5950   65.8880   29.9010 H     4389  MOL4389     0.2052
  26168  O         54.7220   75.8840   65.4350 O.3   4390  MOL4390    -0.4105
  26169  H         54.9760   75.0090   65.7950 H     4390  MOL4390     0.2052
  26170  H         54.7310   76.5400   66.1800 H     4390  MOL4390     0.2052
  26171  O         94.9150   65.5590  293.7230 O.3   4391  MOL4391    -0.4105
  26172  H         95.6530   66.2030  293.6720 H     4391  MOL4391     0.2052
  26173  H         94.0740   66.0630  293.8800 H     4391  MOL4391     0.2052
  26174  O         95.6040   17.8660  153.8130 O.3   4392  MOL4392    -0.4105
  26175  H         95.2910   17.4210  152.9970 H     4392  MOL4392     0.2052
  26176  H         94.8810   17.8150  154.4900 H     4392  MOL4392     0.2052
  26177  O         11.9410   27.6230  190.3520 O.3   4393  MOL4393    -0.4105
  26178  H         11.9780   28.5560  190.0540 H     4393  MOL4393     0.2052
  26179  H         12.4970   27.0790  189.7360 H     4393  MOL4393     0.2052
  26180  O        109.6430   68.6370  168.4820 O.3   4394  MOL4394    -0.4105
  26181  H        109.5400   69.2870  169.2080 H     4394  MOL4394     0.2052
  26182  H        109.8480   67.7530  168.8840 H     4394  MOL4394     0.2052
  26183  O         34.9350   80.4500  266.4430 O.3   4395  MOL4395    -0.4105
  26184  H         35.3370   81.3210  266.2400 H     4395  MOL4395     0.2052
  26185  H         35.6660   79.7840  266.5300 H     4395  MOL4395     0.2052
  26186  O         33.2830  172.7800  150.2440 O.3   4396  MOL4396    -0.4105
  26187  H         33.8580  173.3010  149.6450 H     4396  MOL4396     0.2052
  26188  H         32.4840  173.3260  150.4600 H     4396  MOL4396     0.2052
  26189  O        161.6450  133.1910   60.5550 O.3   4397  MOL4397    -0.4105
  26190  H        162.4720  132.6640   60.5440 H     4397  MOL4397     0.2052
  26191  H        161.8890  134.1520   60.5660 H     4397  MOL4397     0.2052
  26192  O        188.7030  174.1860  222.1620 O.3   4398  MOL4398    -0.4105
  26193  H        189.6640  173.9920  222.1740 H     4398  MOL4398     0.2052
  26194  H        188.2120  173.3240  222.1590 H     4398  MOL4398     0.2052
  26195  O         59.8570   40.7880   17.5390 O.3   4399  MOL4399    -0.4105
  26196  H         59.0420   40.2650   17.6910 H     4399  MOL4399     0.2052
  26197  H         59.6140   41.7500   17.5480 H     4399  MOL4399     0.2052
  26198  O        100.2790  169.1020  238.4430 O.3   4400  MOL4400    -0.4105
  26199  H         99.7810  168.4300  238.9530 H     4400  MOL4400     0.2052
  26200  H        100.1320  168.9300  237.4770 H     4400  MOL4400     0.2052
  26201  O         58.7830  191.9510  241.8290 O.3   4401  MOL4401    -0.4105
  26202  H         58.8260  190.9860  241.6640 H     4401  MOL4401     0.2052
  26203  H         57.8280  192.2210  241.8390 H     4401  MOL4401     0.2052
  26204  O        163.1860   50.0540  272.9600 O.3   4402  MOL4402    -0.4105
  26205  H        163.0960   49.2700  272.3790 H     4402  MOL4402     0.2052
  26206  H        162.3220   50.1950  273.4260 H     4402  MOL4402     0.2052
  26207  O        151.0810   20.6230  159.6000 O.3   4403  MOL4403    -0.4105
  26208  H        151.8980   20.6450  160.1400 H     4403  MOL4403     0.2052
  26209  H        151.3370   20.4430  158.6580 H     4403  MOL4403     0.2052
  26210  O        101.9590  139.7650   52.2070 O.3   4404  MOL4404    -0.4105
  26211  H        101.3930  140.4930   52.5380 H     4404  MOL4404     0.2052
  26212  H        102.4410  139.3700   52.9790 H     4404  MOL4404     0.2052
  26213  O         42.7110   83.9190   36.1180 O.3   4405  MOL4405    -0.4105
  26214  H         42.0310   83.2130   36.0950 H     4405  MOL4405     0.2052
  26215  H         42.5110   84.5180   36.8830 H     4405  MOL4405     0.2052
  26216  O         22.3150  190.1850   60.2500 O.3   4406  MOL4406    -0.4105
  26217  H         21.8200  189.8730   61.0360 H     4406  MOL4406     0.2052
  26218  H         21.6600  190.5120   59.5800 H     4406  MOL4406     0.2052
  26219  O        144.0700   75.7950   54.4500 O.3   4407  MOL4407    -0.4105
  26220  H        143.2710   75.9070   53.8940 H     4407  MOL4407     0.2052
  26221  H        144.3650   74.8500   54.3820 H     4407  MOL4407     0.2052
  26222  O        164.9270  150.0410  276.8310 O.3   4408  MOL4408    -0.4105
  26223  H        165.5480  149.5230  277.3860 H     4408  MOL4408     0.2052
  26224  H        164.8090  149.5640  275.9690 H     4408  MOL4408     0.2052
  26225  O         14.3040   82.0720  258.1520 O.3   4409  MOL4409    -0.4105
  26226  H         14.7040   82.7880  257.6150 H     4409  MOL4409     0.2052
  26227  H         14.0040   82.4610  259.0140 H     4409  MOL4409     0.2052
  26228  O        194.4230   69.0950  289.5220 O.3   4410  MOL4410    -0.4105
  26229  H        195.0710   68.4050  289.2680 H     4410  MOL4410     0.2052
  26230  H        193.9620   68.7990  290.3500 H     4410  MOL4410     0.2052
  26231  O        176.7790  153.8860    4.9100 O.3   4411  MOL4411    -0.4105
  26232  H        176.3270  154.7290    5.1250 H     4411  MOL4411     0.2052
  26233  H        176.0990  153.2450    4.5780 H     4411  MOL4411     0.2052
  26234  O        145.4810   86.0280  273.2340 O.3   4412  MOL4412    -0.4105
  26235  H        145.5800   85.0570  273.1460 H     4412  MOL4412     0.2052
  26236  H        146.3340   86.4540  272.9600 H     4412  MOL4412     0.2052
  26237  O        146.5190   41.4960  139.9150 O.3   4413  MOL4413    -0.4105
  26238  H        145.7600   42.1030  139.7870 H     4413  MOL4413     0.2052
  26239  H        146.2710   40.6070  139.5510 H     4413  MOL4413     0.2052
  26240  O        153.2990  102.3880  215.1460 O.3   4414  MOL4414    -0.4105
  26241  H        153.4930  101.6550  214.5250 H     4414  MOL4414     0.2052
  26242  H        153.6520  103.2280  214.7540 H     4414  MOL4414     0.2052
  26243  O        106.0440  175.0710  275.8050 O.3   4415  MOL4415    -0.4105
  26244  H        105.4820  175.2190  275.0160 H     4415  MOL4415     0.2052
  26245  H        106.4480  175.9380  276.0660 H     4415  MOL4415     0.2052
  26246  O         24.1950   20.8540   52.9550 O.3   4416  MOL4416    -0.4105
  26247  H         24.1470   21.8300   52.8820 H     4416  MOL4416     0.2052
  26248  H         25.1410   20.5800   52.8320 H     4416  MOL4416     0.2052
  26249  O         19.1620  110.4660  239.0870 O.3   4417  MOL4417    -0.4105
  26250  H         19.3380  111.1230  238.3810 H     4417  MOL4417     0.2052
  26251  H         18.2570  110.6400  239.4550 H     4417  MOL4417     0.2052
  26252  O         77.1640  170.2190  190.7200 O.3   4418  MOL4418    -0.4105
  26253  H         76.3430  169.9820  191.1990 H     4418  MOL4418     0.2052
  26254  H         77.1180  171.1810  190.4810 H     4418  MOL4418     0.2052
  26255  O         78.6380   78.6640   38.6270 O.3   4419  MOL4419    -0.4105
  26256  H         78.3780   77.7460   38.8510 H     4419  MOL4419     0.2052
  26257  H         78.7240   79.1770   39.4720 H     4419  MOL4419     0.2052
  26258  O        151.0110  195.2840  100.4070 O.3   4420  MOL4420    -0.4105
  26259  H        151.8950  195.6600  100.2120 H     4420  MOL4420     0.2052
  26260  H        150.9980  195.0000  101.3580 H     4420  MOL4420     0.2052
  26261  O         48.5890  167.5600  221.0230 O.3   4421  MOL4421    -0.4105
  26262  H         48.6780  168.5050  220.7790 H     4421  MOL4421     0.2052
  26263  H         48.6330  167.0190  220.1920 H     4421  MOL4421     0.2052
  26264  O          9.6240   99.9870  189.9570 O.3   4422  MOL4422    -0.4105
  26265  H          8.6630   99.8270  190.0640 H     4422  MOL4422     0.2052
  26266  H         10.0820   99.1080  189.9040 H     4422  MOL4422     0.2052
  26267  O        106.0800  113.4350  204.6690 O.3   4423  MOL4423    -0.4105
  26268  H        105.3970  113.9410  204.1820 H     4423  MOL4423     0.2052
  26269  H        105.6220  112.8110  205.2890 H     4423  MOL4423     0.2052
  26270  O         79.1330  164.3680   11.0150 O.3   4424  MOL4424    -0.4105
  26271  H         80.0890  164.3670   10.7970 H     4424  MOL4424     0.2052
  26272  H         78.7250  163.5540   10.6220 H     4424  MOL4424     0.2052
  26273  O          5.3390  183.9770  212.2700 O.3   4425  MOL4425    -0.4105
  26274  H          5.5760  183.0620  212.0140 H     4425  MOL4425     0.2052
  26275  H          5.9630  184.5990  211.8140 H     4425  MOL4425     0.2052
  26276  O         10.8800   38.3030  147.3790 O.3   4426  MOL4426    -0.4105
  26277  H         10.5970   38.4400  146.4510 H     4426  MOL4426     0.2052
  26278  H         11.8390   38.0470  147.3760 H     4426  MOL4426     0.2052
  26279  O        175.3100  117.2000   52.7830 O.3   4427  MOL4427    -0.4105
  26280  H        175.2740  116.2850   53.1320 H     4427  MOL4427     0.2052
  26281  H        175.9760  117.7090   53.3140 H     4427  MOL4427     0.2052
  26282  O         48.4110   88.9200  207.9740 O.3   4428  MOL4428    -0.4105
  26283  H         47.4700   88.9470  208.2490 H     4428  MOL4428     0.2052
  26284  H         48.6850   87.9700  207.8980 H     4428  MOL4428     0.2052
  26285  O        115.3250   17.3550  120.0410 O.3   4429  MOL4429    -0.4105
  26286  H        115.9370   16.9220  119.4100 H     4429  MOL4429     0.2052
  26287  H        115.6670   18.2680  120.2290 H     4429  MOL4429     0.2052
  26288  O        192.4090  156.6570  241.9290 O.3   4430  MOL4430    -0.4105
  26289  H        192.7100  157.1720  242.7060 H     4430  MOL4430     0.2052
  26290  H        191.5580  156.2040  242.1670 H     4430  MOL4430     0.2052
  26291  O         65.5570  110.7510  180.3220 O.3   4431  MOL4431    -0.4105
  26292  H         66.5020  110.6620  180.0770 H     4431  MOL4431     0.2052
  26293  H         65.3160  109.9890  180.9100 H     4431  MOL4431     0.2052
  26294  O         63.5050  152.1460   76.7740 O.3   4432  MOL4432    -0.4105
  26295  H         62.9800  151.3220   76.8450 H     4432  MOL4432     0.2052
  26296  H         63.8220  152.3910   77.6820 H     4432  MOL4432     0.2052
  26297  O         35.9470   48.7940   51.1440 O.3   4433  MOL4433    -0.4105
  26298  H         36.0630   47.8630   51.4280 H     4433  MOL4433     0.2052
  26299  H         36.4670   48.9310   50.3100 H     4433  MOL4433     0.2052
  26300  O         89.1310  132.0410  209.9300 O.3   4434  MOL4434    -0.4105
  26301  H         90.1020  131.9090  209.9260 H     4434  MOL4434     0.2052
  26302  H         88.9510  133.0170  209.9340 H     4434  MOL4434     0.2052
  26303  O        115.6200   46.3340  296.6910 O.3   4435  MOL4435    -0.4105
  26304  H        115.8500   45.4220  296.4190 H     4435  MOL4435     0.2052
  26305  H        115.6800   46.3870  297.6800 H     4435  MOL4435     0.2052
  26306  O         35.3320  125.5600  156.0010 O.3   4436  MOL4436    -0.4105
  26307  H         34.5920  126.1000  156.3490 H     4436  MOL4436     0.2052
  26308  H         36.0400  126.1760  155.6770 H     4436  MOL4436     0.2052
  26309  O         37.3520   15.6940  166.6640 O.3   4437  MOL4437    -0.4105
  26310  H         36.3730   15.7340  166.6850 H     4437  MOL4437     0.2052
  26311  H         37.7040   16.3900  167.2770 H     4437  MOL4437     0.2052
  26312  O        128.3030  173.7460   17.0910 O.3   4438  MOL4438    -0.4105
  26313  H        127.5190  174.1770   17.4920 H     4438  MOL4438     0.2052
  26314  H        128.0270  172.8550   16.7530 H     4438  MOL4438     0.2052
  26315  O        139.6970   86.5860   60.6370 O.3   4439  MOL4439    -0.4105
  26316  H        140.1090   86.4870   59.7530 H     4439  MOL4439     0.2052
  26317  H        139.3930   87.5250   60.7340 H     4439  MOL4439     0.2052
  26318  O        119.8110   70.6520  265.0750 O.3   4440  MOL4440    -0.4105
  26319  H        120.2810   71.4620  264.7860 H     4440  MOL4440     0.2052
  26320  H        118.8350   70.8210  265.0130 H     4440  MOL4440     0.2052
  26321  O         73.9900  183.7570  220.6940 O.3   4441  MOL4441    -0.4105
  26322  H         74.1700  184.6050  221.1510 H     4441  MOL4441     0.2052
  26323  H         74.8510  183.2800  220.5720 H     4441  MOL4441     0.2052
  26324  O         54.8360   35.0670  179.3060 O.3   4442  MOL4442    -0.4105
  26325  H         55.5840   35.1190  178.6740 H     4442  MOL4442     0.2052
  26326  H         54.4610   34.1500  179.2680 H     4442  MOL4442     0.2052
  26327  O        198.9890  161.0290  155.3360 O.3   4443  MOL4443    -0.4105
  26328  H        199.7950  161.4250  154.9450 H     4443  MOL4443     0.2052
  26329  H        198.3470  161.7600  155.5300 H     4443  MOL4443     0.2052
  26330  O        109.2110   65.6350   19.9850 O.3   4444  MOL4444    -0.4105
  26331  H        108.6410   65.1520   19.3510 H     4444  MOL4444     0.2052
  26332  H        109.2060   66.5960   19.7380 H     4444  MOL4444     0.2052
  26333  O        110.4970  104.4220  276.5320 O.3   4445  MOL4445    -0.4105
  26334  H        109.9160  103.6370  276.4560 H     4445  MOL4445     0.2052
  26335  H        111.4330  104.1080  276.6260 H     4445  MOL4445     0.2052
  26336  O        126.2360   87.5840  190.3850 O.3   4446  MOL4446    -0.4105
  26337  H        125.4030   87.5190  190.8970 H     4446  MOL4446     0.2052
  26338  H        126.4060   88.5410  190.1880 H     4446  MOL4446     0.2052
  26339  O        151.0460  165.1210  187.1290 O.3   4447  MOL4447    -0.4105
  26340  H        150.5680  164.4030  187.5940 H     4447  MOL4447     0.2052
  26341  H        151.8610  164.7350  186.7160 H     4447  MOL4447     0.2052
  26342  O         84.0120   38.9970   62.2130 O.3   4448  MOL4448    -0.4105
  26343  H         84.7040   39.0200   61.5200 H     4448  MOL4448     0.2052
  26344  H         83.7450   39.9310   62.4150 H     4448  MOL4448     0.2052
  26345  O        195.0770  174.1150  236.1000 O.3   4449  MOL4449    -0.4105
  26346  H        194.8900  173.6570  235.2540 H     4449  MOL4449     0.2052
  26347  H        196.0610  174.1520  236.2220 H     4449  MOL4449     0.2052
  26348  O         80.9200   63.0240    7.6680 O.3   4450  MOL4450    -0.4105
  26349  H         81.8440   62.7030    7.7300 H     4450  MOL4450     0.2052
  26350  H         80.9380   64.0160    7.6360 H     4450  MOL4450     0.2052
  26351  O        165.9080  130.1460   54.1030 O.3   4451  MOL4451    -0.4105
  26352  H        165.1770  129.4930   54.0990 H     4451  MOL4451     0.2052
  26353  H        166.7680  129.6500   54.0760 H     4451  MOL4451     0.2052
  26354  O        129.0960   93.6820  263.7310 O.3   4452  MOL4452    -0.4105
  26355  H        128.1630   93.4920  263.9610 H     4452  MOL4452     0.2052
  26356  H        129.6680   93.3940  264.4890 H     4452  MOL4452     0.2052
  26357  O         56.2160  159.4150  173.1060 O.3   4453  MOL4453    -0.4105
  26358  H         55.6690  159.4000  173.9190 H     4453  MOL4453     0.2052
  26359  H         56.6350  158.5220  172.9970 H     4453  MOL4453     0.2052
  26360  O          1.7250  193.9590  238.8770 O.3   4454  MOL4454    -0.4105
  26361  H          2.0860  194.7750  238.4700 H     4454  MOL4454     0.2052
  26362  H          1.4880  193.3280  238.1490 H     4454  MOL4454     0.2052
  26363  O         94.4460  176.9970  202.6220 O.3   4455  MOL4455    -0.4105
  26364  H         95.1610  176.5860  203.1510 H     4455  MOL4455     0.2052
  26365  H         93.9680  177.6490  203.1980 H     4455  MOL4455     0.2052
  26366  O        150.9690  108.5340   26.8560 O.3   4456  MOL4456    -0.4105
  26367  H        150.9720  107.5530   26.8550 H     4456  MOL4456     0.2052
  26368  H        151.9010  108.8470   26.9920 H     4456  MOL4456     0.2052
  26369  O         26.5710  160.1850   63.3040 O.3   4457  MOL4457    -0.4105
  26370  H         25.7700  160.7210   63.1250 H     4457  MOL4457     0.2052
  26371  H         27.3580  160.7890   63.2910 H     4457  MOL4457     0.2052
  26372  O         83.9350  134.4240  296.6870 O.3   4458  MOL4458    -0.4105
  26373  H         84.5000  133.6400  296.8510 H     4458  MOL4458     0.2052
  26374  H         83.0040  134.1940  296.9400 H     4458  MOL4458     0.2052
  26375  O         10.9030  152.1360  105.4480 O.3   4459  MOL4459    -0.4105
  26376  H         11.0950  151.2040  105.6810 H     4459  MOL4459     0.2052
  26377  H         11.7650  152.5950  105.2700 H     4459  MOL4459     0.2052
  26378  O          2.7820   49.4140  276.7680 O.3   4460  MOL4460    -0.4105
  26379  H          2.1670   48.6990  277.0330 H     4460  MOL4460     0.2052
  26380  H          2.5360   50.2360  277.2680 H     4460  MOL4460     0.2052
  26381  O         18.0660  193.1820  297.8660 O.3   4461  MOL4461    -0.4105
  26382  H         17.2200  193.4170  298.3000 H     4461  MOL4461     0.2052
  26383  H         18.1300  192.1920  297.8250 H     4461  MOL4461     0.2052
  26384  O        160.2410  196.0940  128.7250 O.3   4462  MOL4462    -0.4105
  26385  H        160.7060  195.3010  129.0660 H     4462  MOL4462     0.2052
  26386  H        159.2990  195.8450  128.5370 H     4462  MOL4462     0.2052
  26387  O         90.6070   95.9950  250.0370 O.3   4463  MOL4463    -0.4105
  26388  H         89.8320   95.3960  250.0820 H     4463  MOL4463     0.2052
  26389  H         90.9240   96.0220  249.0970 H     4463  MOL4463     0.2052
  26390  O         45.3970  142.9740  138.8220 O.3   4464  MOL4464    -0.4105
  26391  H         45.4410  143.9430  138.9600 H     4464  MOL4464     0.2052
  26392  H         44.4460  142.7220  138.6900 H     4464  MOL4464     0.2052
  26393  O         97.1500  138.3580  169.4440 O.3   4465  MOL4465    -0.4105
  26394  H         97.8280  137.6800  169.2440 H     4465  MOL4465     0.2052
  26395  H         96.2800  137.8990  169.5730 H     4465  MOL4465     0.2052
  26396  O        133.8390   28.5170  152.1180 O.3   4466  MOL4466    -0.4105
  26397  H        133.6310   29.4710  152.2000 H     4466  MOL4466     0.2052
  26398  H        132.9890   28.0090  152.1640 H     4466  MOL4466     0.2052
  26399  O        198.3110  185.1980  161.0030 O.3   4467  MOL4467    -0.4105
  26400  H        198.6600  186.1140  161.0060 H     4467  MOL4467     0.2052
  26401  H        197.3270  185.2410  160.8840 H     4467  MOL4467     0.2052
  26402  O          5.4880  162.2560  165.9570 O.3   4468  MOL4468    -0.4105
  26403  H          4.5380  162.3830  166.1630 H     4468  MOL4468     0.2052
  26404  H          5.6500  161.2860  165.8240 H     4468  MOL4468     0.2052
  26405  O        123.9630    3.1000  283.5050 O.3   4469  MOL4469    -0.4105
  26406  H        124.1710    2.1610  283.3180 H     4469  MOL4469     0.2052
  26407  H        124.6930    3.6600  283.1340 H     4469  MOL4469     0.2052
  26408  O         84.4220   88.9840   14.7790 O.3   4470  MOL4470    -0.4105
  26409  H         85.1920   88.4010   14.6110 H     4470  MOL4470     0.2052
  26410  H         83.6120   88.4160   14.8480 H     4470  MOL4470     0.2052
  26411  O        117.5130  125.4190   48.0640 O.3   4471  MOL4471    -0.4105
  26412  H        117.5150  124.7570   48.7860 H     4471  MOL4471     0.2052
  26413  H        118.3760  125.9090   48.0900 H     4471  MOL4471     0.2052
  26414  O        199.1650   10.0240  246.6010 O.3   4472  MOL4472    -0.4105
  26415  H        199.1710   10.4830  245.7350 H     4472  MOL4472     0.2052
  26416  H        198.3270   10.2670  247.0750 H     4472  MOL4472     0.2052
  26417  O        154.5110   21.4750  197.8570 O.3   4473  MOL4473    -0.4105
  26418  H        154.0950   21.2840  196.9900 H     4473  MOL4473     0.2052
  26419  H        153.8000   21.4810  198.5480 H     4473  MOL4473     0.2052
  26420  O        103.8790  189.1590  140.5860 O.3   4474  MOL4474    -0.4105
  26421  H        102.9570  188.8270  140.5900 H     4474  MOL4474     0.2052
  26422  H        104.4900  188.3770  140.5780 H     4474  MOL4474     0.2052
  26423  O        181.2190   46.6310  259.0160 O.3   4475  MOL4475    -0.4105
  26424  H        182.0310   47.1780  259.0590 H     4475  MOL4475     0.2052
  26425  H        181.4890   45.6760  259.0030 H     4475  MOL4475     0.2052
  26426  O         76.3760   93.8940  180.4440 O.3   4476  MOL4476    -0.4105
  26427  H         75.8390   93.0740  180.4580 H     4476  MOL4476     0.2052
  26428  H         76.3410   94.2730  179.5280 H     4476  MOL4476     0.2052
  26429  O         55.0810   81.9930  266.2790 O.3   4477  MOL4477    -0.4105
  26430  H         54.1600   82.0160  265.9450 H     4477  MOL4477     0.2052
  26431  H         55.4060   81.0570  266.2320 H     4477  MOL4477     0.2052
  26432  O         52.1000  186.5600   78.7950 O.3   4478  MOL4478    -0.4105
  26433  H         51.2410  187.0030   78.6300 H     4478  MOL4478     0.2052
  26434  H         52.0780  185.6680   78.3600 H     4478  MOL4478     0.2052
  26435  O         72.8020  152.7210  245.2280 O.3   4479  MOL4479    -0.4105
  26436  H         73.0470  151.8220  244.9230 H     4479  MOL4479     0.2052
  26437  H         73.6210  153.1680  245.5640 H     4479  MOL4479     0.2052
  26438  O         39.5840  190.5240  195.1800 O.3   4480  MOL4480    -0.4105
  26439  H         40.1660  190.8190  195.9120 H     4480  MOL4480     0.2052
  26440  H         39.7090  189.5470  195.0580 H     4480  MOL4480     0.2052
  26441  O        194.7370   47.9150   14.0190 O.3   4481  MOL4481    -0.4105
  26442  H        195.0330   48.0680   14.9410 H     4481  MOL4481     0.2052
  26443  H        195.3850   48.3530   13.4080 H     4481  MOL4481     0.2052
  26444  O        180.0510   56.3910   91.9580 O.3   4482  MOL4482    -0.4105
  26445  H        180.5540   56.4350   92.7980 H     4482  MOL4482     0.2052
  26446  H        180.4860   55.7200   91.3710 H     4482  MOL4482     0.2052
  26447  O        162.5270   36.0800  153.7360 O.3   4483  MOL4483    -0.4105
  26448  H        162.8270   36.0590  152.8030 H     4483  MOL4483     0.2052
  26449  H        163.2190   36.5450  154.2740 H     4483  MOL4483     0.2052
  26450  O         82.6150  114.3320   24.4660 O.3   4484  MOL4484    -0.4105
  26451  H         83.5740  114.1930   24.3190 H     4484  MOL4484     0.2052
  26452  H         82.4460  115.3090   24.5050 H     4484  MOL4484     0.2052
  26453  O        187.4720   52.4100  186.8090 O.3   4485  MOL4485    -0.4105
  26454  H        188.1780   53.0190  186.5070 H     4485  MOL4485     0.2052
  26455  H        186.8070   52.3200  186.0780 H     4485  MOL4485     0.2052
  26456  O        190.2860   94.8260   35.4890 O.3   4486  MOL4486    -0.4105
  26457  H        190.2240   95.7330   35.1220 H     4486  MOL4486     0.2052
  26458  H        190.1210   94.1810   34.7530 H     4486  MOL4486     0.2052
  26459  O        131.2210    1.7440   78.7100 O.3   4487  MOL4487    -0.4105
  26460  H        130.8350    0.9850   79.1960 H     4487  MOL4487     0.2052
  26461  H        131.1230    1.5720   77.7380 H     4487  MOL4487     0.2052
  26462  O        104.0240  155.0990   62.1040 O.3   4488  MOL4488    -0.4105
  26463  H        103.5620  155.4570   61.3170 H     4488  MOL4488     0.2052
  26464  H        103.6190  154.2220   62.3290 H     4488  MOL4488     0.2052
  26465  O        136.4530    8.7030   89.5670 O.3   4489  MOL4489    -0.4105
  26466  H        137.1000    8.8270   88.8420 H     4489  MOL4489     0.2052
  26467  H        136.2030    7.7430   89.6000 H     4489  MOL4489     0.2052
  26468  O        180.4940   34.8250  199.9850 O.3   4490  MOL4490    -0.4105
  26469  H        179.9000   35.5060  199.6050 H     4490  MOL4490     0.2052
  26470  H        180.7960   34.2310  199.2500 H     4490  MOL4490     0.2052
  26471  O         66.2030   16.3240  178.2070 O.3   4491  MOL4491    -0.4105
  26472  H         65.9880   17.2800  178.1880 H     4491  MOL4491     0.2052
  26473  H         65.3520   15.8140  178.1990 H     4491  MOL4491     0.2052
  26474  O         89.1410  156.9250   20.1980 O.3   4492  MOL4492    -0.4105
  26475  H         89.6430  156.1150   20.4250 H     4492  MOL4492     0.2052
  26476  H         88.1820  156.6830   20.1160 H     4492  MOL4492     0.2052
  26477  O        175.5620   32.4000  246.3820 O.3   4493  MOL4493    -0.4105
  26478  H        176.3200   31.9960  246.8540 H     4493  MOL4493     0.2052
  26479  H        174.9490   31.6730  246.0990 H     4493  MOL4493     0.2052
  26480  O          8.5270   45.1930   73.9320 O.3   4494  MOL4494    -0.4105
  26481  H          8.0240   44.3520   73.9120 H     4494  MOL4494     0.2052
  26482  H          9.4670   44.9980   73.6800 H     4494  MOL4494     0.2052
  26483  O          4.3760   80.6370  107.9070 O.3   4495  MOL4495    -0.4105
  26484  H          4.8850   81.0240  108.6490 H     4495  MOL4495     0.2052
  26485  H          4.2800   79.6630  108.0720 H     4495  MOL4495     0.2052
  26486  O         29.6890  111.2700  177.4400 O.3   4496  MOL4496    -0.4105
  26487  H         29.4580  112.2010  177.2390 H     4496  MOL4496     0.2052
  26488  H         30.6660  111.1580  177.3090 H     4496  MOL4496     0.2052
  26489  O        149.7170  119.0290  219.2490 O.3   4497  MOL4497    -0.4105
  26490  H        149.1440  118.3490  218.8390 H     4497  MOL4497     0.2052
  26491  H        149.3140  119.2950  220.1160 H     4497  MOL4497     0.2052
  26492  O         58.1920  185.2410  246.7300 O.3   4498  MOL4498    -0.4105
  26493  H         58.9010  184.6020  246.5040 H     4498  MOL4498     0.2052
  26494  H         58.4990  185.7850  247.5010 H     4498  MOL4498     0.2052
  26495  O        116.1410   85.4030  187.9060 O.3   4499  MOL4499    -0.4105
  26496  H        115.5840   84.6630  187.5850 H     4499  MOL4499     0.2052
  26497  H        116.9390   85.4680  187.3180 H     4499  MOL4499     0.2052
  26498  O        158.0700   13.5510    5.2890 O.3   4500  MOL4500    -0.4105
  26499  H        157.2640   14.0930    5.4240 H     4500  MOL4500     0.2052
  26500  H        158.8550   14.1570    5.2890 H     4500  MOL4500     0.2052
  26501  O         47.4300   30.7860  155.7780 O.3   4501  MOL4501    -0.4105
  26502  H         48.0650   30.1570  155.3750 H     4501  MOL4501     0.2052
  26503  H         47.9450   31.4520  156.3030 H     4501  MOL4501     0.2052
  26504  O        143.9620   66.8940  224.7460 O.3   4502  MOL4502    -0.4105
  26505  H        143.9170   65.9890  225.1200 H     4502  MOL4502     0.2052
  26506  H        144.7550   67.3500  225.1310 H     4502  MOL4502     0.2052
  26507  O        176.9870  134.2150  181.3740 O.3   4503  MOL4503    -0.4105
  26508  H        177.5890  133.4430  181.4270 H     4503  MOL4503     0.2052
  26509  H        176.8380  134.5560  182.2940 H     4503  MOL4503     0.2052
  26510  O          8.8260  160.5350  270.3010 O.3   4504  MOL4504    -0.4105
  26511  H          9.3130  160.0990  269.5710 H     4504  MOL4504     0.2052
  26512  H          8.8650  161.5160  270.1580 H     4504  MOL4504     0.2052
  26513  O        110.7850  119.4270  274.4510 O.3   4505  MOL4505    -0.4105
  26514  H        111.3480  120.2270  274.5130 H     4505  MOL4505     0.2052
  26515  H        111.3550  118.6680  274.1630 H     4505  MOL4505     0.2052
  26516  O         30.4620   45.1160   33.6960 O.3   4506  MOL4506    -0.4105
  26517  H         31.3050   44.7090   33.4080 H     4506  MOL4506     0.2052
  26518  H         30.5960   46.0980   33.7560 H     4506  MOL4506     0.2052
  26519  O        135.5010  166.5780    4.7030 O.3   4507  MOL4507    -0.4105
  26520  H        135.1120  166.3100    5.5620 H     4507  MOL4507     0.2052
  26521  H        135.3230  165.8580    4.0440 H     4507  MOL4507     0.2052
  26522  O        179.2960   97.2740  136.2680 O.3   4508  MOL4508    -0.4105
  26523  H        179.6580   96.3690  136.1650 H     4508  MOL4508     0.2052
  26524  H        178.3100   97.2040  136.3620 H     4508  MOL4508     0.2052
  26525  O         91.2740   44.8150  214.5250 O.3   4509  MOL4509    -0.4105
  26526  H         90.8350   44.7420  215.3970 H     4509  MOL4509     0.2052
  26527  H         90.8110   44.2070  213.8920 H     4509  MOL4509     0.2052
  26528  O        122.7290  160.7000  164.7540 O.3   4510  MOL4510    -0.4105
  26529  H        122.6500  159.7380  164.5840 H     4510  MOL4510     0.2052
  26530  H        123.4090  161.0700  164.1340 H     4510  MOL4510     0.2052
  26531  O        184.0030  128.2320   95.5940 O.3   4511  MOL4511    -0.4105
  26532  H        184.6470  127.8020   96.1950 H     4511  MOL4511     0.2052
  26533  H        184.1320  129.2140   95.6520 H     4511  MOL4511     0.2052
  26534  O        197.1240  170.5360  208.1790 O.3   4512  MOL4512    -0.4105
  26535  H        196.5400  169.7620  208.3150 H     4512  MOL4512     0.2052
  26536  H        198.0520  170.2070  208.0510 H     4512  MOL4512     0.2052
  26537  O         95.3620   38.2810   77.0570 O.3   4513  MOL4513    -0.4105
  26538  H         94.7020   38.6400   76.4270 H     4513  MOL4513     0.2052
  26539  H         95.2520   38.7520   77.9230 H     4513  MOL4513     0.2052
  26540  O        163.7650   14.1030   36.1800 O.3   4514  MOL4514    -0.4105
  26541  H        163.5140   13.1570   36.2350 H     4514  MOL4514     0.2052
  26542  H        163.0650   14.6370   36.6380 H     4514  MOL4514     0.2052
  26543  O         89.6690    6.1560  223.2840 O.3   4515  MOL4515    -0.4105
  26544  H         90.4260    5.5520  223.4340 H     4515  MOL4515     0.2052
  26545  H         89.6680    6.4200  222.3270 H     4515  MOL4515     0.2052
  26546  O        139.1230  188.4350  225.7020 O.3   4516  MOL4516    -0.4105
  26547  H        138.6760  189.1700  226.1720 H     4516  MOL4516     0.2052
  26548  H        139.1770  188.6700  224.7400 H     4516  MOL4516     0.2052
  26549  O         30.9180  159.9690  193.9440 O.3   4517  MOL4517    -0.4105
  26550  H         31.5010  160.7550  193.9990 H     4517  MOL4517     0.2052
  26551  H         30.6670  159.8330  192.9940 H     4517  MOL4517     0.2052
  26552  O        129.0320  155.0740  139.7150 O.3   4518  MOL4518    -0.4105
  26553  H        128.3110  155.7200  139.5610 H     4518  MOL4518     0.2052
  26554  H        128.8180  154.2460  139.2110 H     4518  MOL4518     0.2052
  26555  O         26.2770  188.7720  293.4180 O.3   4519  MOL4519    -0.4105
  26556  H         26.7610  187.9240  293.5040 H     4519  MOL4519     0.2052
  26557  H         25.3580  188.6410  293.7680 H     4519  MOL4519     0.2052
  26558  O         81.0640   92.1380  253.0800 O.3   4520  MOL4520    -0.4105
  26559  H         81.2040   92.8710  252.4450 H     4520  MOL4520     0.2052
  26560  H         81.5620   91.3440  252.7540 H     4520  MOL4520     0.2052
  26561  O        155.7030   17.4280  258.0280 O.3   4521  MOL4521    -0.4105
  26562  H        156.1520   16.8860  257.3460 H     4521  MOL4521     0.2052
  26563  H        155.8600   18.3850  257.8160 H     4521  MOL4521     0.2052
  26564  O         70.5280   16.4120  264.2420 O.3   4522  MOL4522    -0.4105
  26565  H         70.2130   15.4830  264.2470 H     4522  MOL4522     0.2052
  26566  H         71.5200   16.4030  264.2440 H     4522  MOL4522     0.2052
  26567  O         91.0190  194.6600   87.9610 O.3   4523  MOL4523    -0.4105
  26568  H         91.6280  193.8990   87.8510 H     4523  MOL4523     0.2052
  26569  H         90.3550  194.6350   87.2250 H     4523  MOL4523     0.2052
  26570  O        171.8710  175.9480  108.0690 O.3   4524  MOL4524    -0.4105
  26571  H        172.6590  175.5760  107.6210 H     4524  MOL4524     0.2052
  26572  H        171.1430  175.2750  108.0270 H     4524  MOL4524     0.2052
  26573  O        139.5510  177.9310  276.6470 O.3   4525  MOL4525    -0.4105
  26574  H        139.5850  176.9520  276.6310 H     4525  MOL4525     0.2052
  26575  H        140.4700  178.2710  276.8000 H     4525  MOL4525     0.2052
  26576  O        147.2970  135.9270    8.6780 O.3   4526  MOL4526    -0.4105
  26577  H        148.0890  135.3650    8.5500 H     4526  MOL4526     0.2052
  26578  H        146.4920  135.3530    8.6010 H     4526  MOL4526     0.2052
  26579  O          9.1610    2.5830   67.9520 O.3   4527  MOL4527    -0.4105
  26580  H          8.9670    1.6310   68.0810 H     4527  MOL4527     0.2052
  26581  H          8.3070    3.0850   68.0060 H     4527  MOL4527     0.2052
  26582  O          1.9260  127.5560  128.1500 O.3   4528  MOL4528    -0.4105
  26583  H          2.6250  126.9370  128.4470 H     4528  MOL4528     0.2052
  26584  H          1.9910  128.3830  128.6950 H     4528  MOL4528     0.2052
  26585  O         44.8060    1.0540  274.0900 O.3   4529  MOL4529    -0.4105
  26586  H         45.0980    1.9880  274.1480 H     4529  MOL4529     0.2052
  26587  H         45.6130    0.4770  274.0690 H     4529  MOL4529     0.2052
  26588  O        145.9990  193.0960  219.5900 O.3   4530  MOL4530    -0.4105
  26589  H        145.0930  193.2370  219.2450 H     4530  MOL4530     0.2052
  26590  H        146.6450  193.3950  218.8980 H     4530  MOL4530     0.2052
  26591  O         92.2190  145.6450  201.0310 O.3   4531  MOL4531    -0.4105
  26592  H         93.1900  145.7680  200.9780 H     4531  MOL4531     0.2052
  26593  H         91.8360  146.4080  201.5380 H     4531  MOL4531     0.2052
  26594  O        126.7930   59.3340  292.8630 O.3   4532  MOL4532    -0.4105
  26595  H        127.0710   60.2580  293.0340 H     4532  MOL4532     0.2052
  26596  H        127.5590   58.8470  292.4630 H     4532  MOL4532     0.2052
  26597  O          5.5900   43.8820  279.3580 O.3   4533  MOL4533    -0.4105
  26598  H          5.4890   42.9080  279.4150 H     4533  MOL4533     0.2052
  26599  H          4.6880   44.2910  279.4160 H     4533  MOL4533     0.2052
  26600  O         90.0360   32.4800  225.4620 O.3   4534  MOL4534    -0.4105
  26601  H         90.1890   31.6470  225.9550 H     4534  MOL4534     0.2052
  26602  H         90.8510   32.6820  224.9330 H     4534  MOL4534     0.2052
  26603  O        194.5820   14.7260   87.7380 O.3   4535  MOL4535    -0.4105
  26604  H        194.8690   13.8070   87.9200 H     4535  MOL4535     0.2052
  26605  H        193.6040   14.7180   87.5710 H     4535  MOL4535     0.2052
  26606  O         79.8700   88.0690   22.4540 O.3   4536  MOL4536    -0.4105
  26607  H         80.7690   87.7230   22.6340 H     4536  MOL4536     0.2052
  26608  H         79.9230   89.0580   22.3980 H     4536  MOL4536     0.2052
  26609  O        128.3780  131.5950  246.5980 O.3   4537  MOL4537    -0.4105
  26610  H        127.8320  130.7820  246.5850 H     4537  MOL4537     0.2052
  26611  H        129.3300  131.3290  246.6800 H     4537  MOL4537     0.2052
  26612  O         82.4150  144.3910  276.9520 O.3   4538  MOL4538    -0.4105
  26613  H         82.8400  145.0040  276.3150 H     4538  MOL4538     0.2052
  26614  H         82.2900  143.5150  276.5030 H     4538  MOL4538     0.2052
  26615  O        138.7950  147.9630   68.5880 O.3   4539  MOL4539    -0.4105
  26616  H        139.7020  147.7630   68.2740 H     4539  MOL4539     0.2052
  26617  H        138.2980  148.3950   67.8450 H     4539  MOL4539     0.2052
  26618  O        179.3970   64.5770   89.3600 O.3   4540  MOL4540    -0.4105
  26619  H        178.5220   64.4300   88.9440 H     4540  MOL4540     0.2052
  26620  H        179.2860   65.2410   90.0890 H     4540  MOL4540     0.2052
  26621  O         32.0200  113.7460  160.2960 O.3   4541  MOL4541    -0.4105
  26622  H         32.9710  113.5160  160.2420 H     4541  MOL4541     0.2052
  26623  H         31.9410  114.7330  160.3450 H     4541  MOL4541     0.2052
  26624  O        176.0020   95.8780  287.2810 O.3   4542  MOL4542    -0.4105
  26625  H        176.3070   95.7300  288.2010 H     4542  MOL4542     0.2052
  26626  H        175.4160   96.6790  287.2740 H     4542  MOL4542     0.2052
  26627  O        104.6100  109.5590   26.6140 O.3   4543  MOL4543    -0.4105
  26628  H        104.5960  109.2060   27.5280 H     4543  MOL4543     0.2052
  26629  H        104.0260  110.3610   26.5820 H     4543  MOL4543     0.2052
  26630  O         82.9160  133.3680   19.4540 O.3   4544  MOL4544    -0.4105
  26631  H         83.2950  133.3720   18.5500 H     4544  MOL4544     0.2052
  26632  H         83.6580  133.2520   20.1020 H     4544  MOL4544     0.2052
  26633  O         49.7150   94.6910  213.9300 O.3   4545  MOL4545    -0.4105
  26634  H         50.0800   93.7810  213.9350 H     4545  MOL4545     0.2052
  26635  H         50.2150   95.2300  214.5960 H     4545  MOL4545     0.2052
  26636  O        192.1570   37.2490  111.3080 O.3   4546  MOL4546    -0.4105
  26637  H        192.6900   38.0670  111.3920 H     4546  MOL4546     0.2052
  26638  H        192.7780   36.4860  111.1740 H     4546  MOL4546     0.2052
  26639  O        190.7060   85.4580   70.9440 O.3   4547  MOL4547    -0.4105
  26640  H        190.8440   86.2440   70.3750 H     4547  MOL4547     0.2052
  26641  H        191.5170   84.8880   70.8890 H     4547  MOL4547     0.2052
  26642  O        152.2670   39.7950  162.6840 O.3   4548  MOL4548    -0.4105
  26643  H        152.4330   40.7610  162.6880 H     4548  MOL4548     0.2052
  26644  H        153.1430   39.3290  162.6750 H     4548  MOL4548     0.2052
  26645  O        194.9310   41.6650  150.7360 O.3   4549  MOL4549    -0.4105
  26646  H        194.9020   42.6360  150.6050 H     4549  MOL4549     0.2052
  26647  H        195.8820   41.3830  150.7620 H     4549  MOL4549     0.2052
  26648  O        185.9790   52.4970  182.2630 O.3   4550  MOL4550    -0.4105
  26649  H        185.2930   52.5960  182.9560 H     4550  MOL4550     0.2052
  26650  H        185.9270   53.2830  181.6600 H     4550  MOL4550     0.2052
  26651  O         89.4360    2.4420   76.1540 O.3   4551  MOL4551    -0.4105
  26652  H         88.6090    2.5900   75.6500 H     4551  MOL4551     0.2052
  26653  H         89.5290    3.1710   76.8200 H     4551  MOL4551     0.2052
  26654  O        176.6430    4.4340  262.3070 O.3   4552  MOL4552    -0.4105
  26655  H        177.5700    4.1350  262.4220 H     4552  MOL4552     0.2052
  26656  H        176.0420    3.6960  262.5860 H     4552  MOL4552     0.2052
  26657  O        145.0450    0.1780   98.1080 O.3   4553  MOL4553    -0.4105
  26658  H        145.8740    0.0810   98.6210 H     4553  MOL4553     0.2052
  26659  H        145.2480   -0.0060   97.1540 H     4553  MOL4553     0.2052
  26660  O        106.8100  141.3910  170.4100 O.3   4554  MOL4554    -0.4105
  26661  H        106.7970  140.4660  170.7330 H     4554  MOL4554     0.2052
  26662  H        107.5300  141.8770  170.8900 H     4554  MOL4554     0.2052
  26663  O        181.0110  192.0910   99.1880 O.3   4555  MOL4555    -0.4105
  26664  H        180.4630  192.6410   99.7860 H     4555  MOL4555     0.2052
  26665  H        180.5410  191.2290   99.0420 H     4555  MOL4555     0.2052
  26666  O        130.2350  121.9600  212.2850 O.3   4556  MOL4556    -0.4105
  26667  H        131.2020  122.1150  212.3340 H     4556  MOL4556     0.2052
  26668  H        130.0660  120.9980  212.4590 H     4556  MOL4556     0.2052
  26669  O        115.9250   11.2860  202.6470 O.3   4557  MOL4557    -0.4105
  26670  H        116.8590   11.2360  202.9400 H     4557  MOL4557     0.2052
  26671  H        115.8880   11.0410  201.6860 H     4557  MOL4557     0.2052
  26672  O         48.2890  140.0750  291.8270 O.3   4558  MOL4558    -0.4105
  26673  H         47.9310  140.2580  290.9330 H     4558  MOL4558     0.2052
  26674  H         48.2490  139.0950  291.9820 H     4558  MOL4558     0.2052
  26675  O         41.3830  148.5920   36.7390 O.3   4559  MOL4559    -0.4105
  26676  H         40.5620  148.0580   36.7240 H     4559  MOL4559     0.2052
  26677  H         41.1360  149.5460   36.6240 H     4559  MOL4559     0.2052
  26678  O         37.8620  195.1020  226.5420 O.3   4560  MOL4560    -0.4105
  26679  H         37.8870  196.0270  226.8660 H     4560  MOL4560     0.2052
  26680  H         38.5270  194.5750  227.0560 H     4560  MOL4560     0.2052
  26681  O         47.8280  149.5550   63.5020 O.3   4561  MOL4561    -0.4105
  26682  H         48.0930  150.0760   62.7150 H     4561  MOL4561     0.2052
  26683  H         48.6390  149.1200   63.8730 H     4561  MOL4561     0.2052
  26684  O          7.7970   95.0020  296.3230 O.3   4562  MOL4562    -0.4105
  26685  H          7.2180   94.9060  297.1080 H     4562  MOL4562     0.2052
  26686  H          8.6640   94.5630  296.5220 H     4562  MOL4562     0.2052
  26687  O         21.9620   65.0210  176.8910 O.3   4563  MOL4563    -0.4105
  26688  H         22.1750   64.9150  175.9410 H     4563  MOL4563     0.2052
  26689  H         22.7100   65.5090  177.3250 H     4563  MOL4563     0.2052
  26690  O        139.4940   59.3390   13.6570 O.3   4564  MOL4564    -0.4105
  26691  H        138.6270   59.7940   13.7040 H     4564  MOL4564     0.2052
  26692  H        140.1580   59.9740   13.2840 H     4564  MOL4564     0.2052
  26693  O         79.5040   49.5200   41.2310 O.3   4565  MOL4565    -0.4105
  26694  H         78.7680   49.4940   40.5850 H     4565  MOL4565     0.2052
  26695  H         79.1980   50.0220   42.0300 H     4565  MOL4565     0.2052
  26696  O         30.5510  185.0120   70.7090 O.3   4566  MOL4566    -0.4105
  26697  H         30.6810  184.1700   71.1920 H     4566  MOL4566     0.2052
  26698  H         31.1560  185.6930   71.1030 H     4566  MOL4566     0.2052
  26699  O        184.0790   37.2410  119.0080 O.3   4567  MOL4567    -0.4105
  26700  H        183.3470   37.2250  119.6600 H     4567  MOL4567     0.2052
  26701  H        184.2620   36.3080  118.7250 H     4567  MOL4567     0.2052
  26702  O        111.9110  117.7250    5.9490 O.3   4568  MOL4568    -0.4105
  26703  H        112.1600  117.8180    6.8930 H     4568  MOL4568     0.2052
  26704  H        111.6310  116.7860    5.7930 H     4568  MOL4568     0.2052
  26705  O        198.9480  118.2480   36.6720 O.3   4569  MOL4569    -0.4105
  26706  H        198.0910  118.1740   37.1420 H     4569  MOL4569     0.2052
  26707  H        199.0430  119.1790   36.3440 H     4569  MOL4569     0.2052
  26708  O         96.4960   15.6850   36.6460 O.3   4570  MOL4570    -0.4105
  26709  H         95.6410   15.3530   36.3020 H     4570  MOL4570     0.2052
  26710  H         96.3170   16.4910   37.1980 H     4570  MOL4570     0.2052
  26711  O         12.0510  162.3540  250.0880 O.3   4571  MOL4571    -0.4105
  26712  H         11.1080  162.6080  250.0050 H     4571  MOL4571     0.2052
  26713  H         12.0930  161.4170  250.4120 H     4571  MOL4571     0.2052
  26714  O         22.4870  168.5640  261.9980 O.3   4572  MOL4572    -0.4105
  26715  H         21.9350  167.9480  261.4720 H     4572  MOL4572     0.2052
  26716  H         22.2790  169.4910  261.7100 H     4572  MOL4572     0.2052
  26717  O         42.2250  197.7870  195.7090 O.3   4573  MOL4573    -0.4105
  26718  H         41.9770  198.7350  195.6820 H     4573  MOL4573     0.2052
  26719  H         41.4540  197.2740  196.0640 H     4573  MOL4573     0.2052
  26720  O        114.1920  159.2690  150.2450 O.3   4574  MOL4574    -0.4105
  26721  H        113.2190  159.3050  150.1260 H     4574  MOL4574     0.2052
  26722  H        114.5030  160.1670  150.5310 H     4574  MOL4574     0.2052
  26723  O          5.1520   31.6480  134.2540 O.3   4575  MOL4575    -0.4105
  26724  H          4.1890   31.4710  134.2080 H     4575  MOL4575     0.2052
  26725  H          5.6150   30.7950  134.4610 H     4575  MOL4575     0.2052
  26726  O        143.9640   26.2420   91.7950 O.3   4576  MOL4576    -0.4105
  26727  H        144.3050   25.3240   91.7690 H     4576  MOL4576     0.2052
  26728  H        142.9730   26.2050   91.8050 H     4576  MOL4576     0.2052
  26729  O        179.8840  174.9990  125.9400 O.3   4577  MOL4577    -0.4105
  26730  H        179.2750  175.7530  125.7980 H     4577  MOL4577     0.2052
  26731  H        179.7770  174.6840  126.8750 H     4577  MOL4577     0.2052
  26732  O        191.4150  135.7390   50.3040 O.3   4578  MOL4578    -0.4105
  26733  H        191.3780  135.0870   51.0350 H     4578  MOL4578     0.2052
  26734  H        192.2910  135.6420   49.8470 H     4578  MOL4578     0.2052
  26735  O        143.4990  187.9600   79.8310 O.3   4579  MOL4579    -0.4105
  26736  H        143.9160  187.6060   79.0180 H     4579  MOL4579     0.2052
  26737  H        142.6270  188.3630   79.5830 H     4579  MOL4579     0.2052
  26738  O         11.5050   82.2610  223.7880 O.3   4580  MOL4580    -0.4105
  26739  H         11.5530   81.3050  223.5820 H     4580  MOL4580     0.2052
  26740  H         12.0750   82.7490  223.1390 H     4580  MOL4580     0.2052
  26741  O        120.1070  103.0270   79.7210 O.3   4581  MOL4581    -0.4105
  26742  H        120.0210  103.1280   78.7500 H     4581  MOL4581     0.2052
  26743  H        121.0400  103.2530   79.9740 H     4581  MOL4581     0.2052
  26744  O        175.2770  139.6680  130.2390 O.3   4582  MOL4582    -0.4105
  26745  H        174.9530  138.7480  130.1490 H     4582  MOL4582     0.2052
  26746  H        174.5590  140.2810  129.9360 H     4582  MOL4582     0.2052
  26747  O        198.4890   83.4950  294.9490 O.3   4583  MOL4583    -0.4105
  26748  H        197.7300   82.8810  294.8600 H     4583  MOL4583     0.2052
  26749  H        198.1320   84.4140  295.0670 H     4583  MOL4583     0.2052
  26750  O        152.2780  154.5720   96.5480 O.3   4584  MOL4584    -0.4105
  26751  H        151.4400  155.0440   96.7370 H     4584  MOL4584     0.2052
  26752  H        152.0900  153.8580   95.8860 H     4584  MOL4584     0.2052
  26753  O        196.9710    9.5170  182.2920 O.3   4585  MOL4585    -0.4105
  26754  H        197.4650    9.0030  181.6190 H     4585  MOL4585     0.2052
  26755  H        196.2520    8.9380  182.6570 H     4585  MOL4585     0.2052
  26756  O         43.0240   34.2280  253.7010 O.3   4586  MOL4586    -0.4105
  26757  H         42.5960   33.3470  253.6660 H     4586  MOL4586     0.2052
  26758  H         43.1760   34.5370  252.7710 H     4586  MOL4586     0.2052
  26759  O         53.8600   25.7920  274.8840 O.3   4587  MOL4587    -0.4105
  26760  H         53.9570   26.6240  275.3930 H     4587  MOL4587     0.2052
  26761  H         52.9220   25.4810  274.9740 H     4587  MOL4587     0.2052
  26762  O        178.5300  122.4560  204.9850 O.3   4588  MOL4588    -0.4105
  26763  H        178.8660  123.2870  204.5880 H     4588  MOL4588     0.2052
  26764  H        177.5430  122.4410  204.8820 H     4588  MOL4588     0.2052
  26765  O         45.5500  151.6510  152.1200 O.3   4589  MOL4589    -0.4105
  26766  H         45.7560  150.6940  152.1660 H     4589  MOL4589     0.2052
  26767  H         45.6190  151.9390  151.1730 H     4589  MOL4589     0.2052
  26768  O          7.2100  175.7220   90.5670 O.3   4590  MOL4590    -0.4105
  26769  H          6.7920  175.5810   89.6920 H     4590  MOL4590     0.2052
  26770  H          7.2010  174.8600   91.0580 H     4590  MOL4590     0.2052
  26771  O         44.3180  122.5970  134.1870 O.3   4591  MOL4591    -0.4105
  26772  H         43.6110  122.0750  133.7540 H     4591  MOL4591     0.2052
  26773  H         44.0340  122.7950  135.1160 H     4591  MOL4591     0.2052
  26774  O        151.3480    3.9550  138.1280 O.3   4592  MOL4592    -0.4105
  26775  H        151.7260    4.1790  137.2520 H     4592  MOL4592     0.2052
  26776  H        151.4570    2.9790  138.2730 H     4592  MOL4592     0.2052
  26777  O        188.8280  107.2750  212.5120 O.3   4593  MOL4593    -0.4105
  26778  H        188.5720  106.3430  212.3500 H     4593  MOL4593     0.2052
  26779  H        189.7110  107.2800  212.9650 H     4593  MOL4593     0.2052
  26780  O        145.5890   62.6380  263.8050 O.3   4594  MOL4594    -0.4105
  26781  H        145.6810   62.4370  264.7600 H     4594  MOL4594     0.2052
  26782  H        145.5800   63.6240  263.6950 H     4594  MOL4594     0.2052
  26783  O        167.1610  187.2310  243.0080 O.3   4595  MOL4595    -0.4105
  26784  H        167.9850  186.7020  243.0030 H     4595  MOL4595     0.2052
  26785  H        167.3070  188.0290  243.5800 H     4595  MOL4595     0.2052
  26786  O         18.1500  186.3280  255.4170 O.3   4596  MOL4596    -0.4105
  26787  H         19.1180  186.4820  255.4210 H     4596  MOL4596     0.2052
  26788  H         17.9910  185.3510  255.4820 H     4596  MOL4596     0.2052
  26789  O         21.2500  109.8310    7.1100 O.3   4597  MOL4597    -0.4105
  26790  H         20.4980  109.9750    7.7210 H     4597  MOL4597     0.2052
  26791  H         21.9470  110.5080    7.3110 H     4597  MOL4597     0.2052
  26792  O         77.7570   67.0270  293.7410 O.3   4598  MOL4598    -0.4105
  26793  H         77.2830   67.4960  294.4590 H     4598  MOL4598     0.2052
  26794  H         78.7140   66.9620  293.9920 H     4598  MOL4598     0.2052
  26795  O         22.5530  163.4700  219.1600 O.3   4599  MOL4599    -0.4105
  26796  H         21.6840  163.0820  218.9250 H     4599  MOL4599     0.2052
  26797  H         22.5360  164.4340  218.9230 H     4599  MOL4599     0.2052
  26798  O         39.3040  156.1600  104.6140 O.3   4600  MOL4600    -0.4105
  26799  H         38.8220  156.4610  105.4130 H     4600  MOL4600     0.2052
  26800  H         38.7780  156.4240  103.8160 H     4600  MOL4600     0.2052
  26801  O        133.9330  191.4850   16.3510 O.3   4601  MOL4601    -0.4105
  26802  H        134.8420  191.1190   16.3810 H     4601  MOL4601     0.2052
  26803  H        133.2930  190.7270   16.3530 H     4601  MOL4601     0.2052
  26804  O         14.8790   11.0060  225.2480 O.3   4602  MOL4602    -0.4105
  26805  H         14.9580   10.0920  224.9020 H     4602  MOL4602     0.2052
  26806  H         15.6750   11.5200  224.9510 H     4602  MOL4602     0.2052
  26807  O         44.6040  161.5110  242.9700 O.3   4603  MOL4603    -0.4105
  26808  H         45.4650  161.2370  242.5900 H     4603  MOL4603     0.2052
  26809  H         44.0660  160.6950  243.1390 H     4603  MOL4603     0.2052
  26810  O        197.7410   61.3340  174.5100 O.3   4604  MOL4604    -0.4105
  26811  H        197.5500   60.4020  174.7470 H     4604  MOL4604     0.2052
  26812  H        198.5810   61.3540  173.9820 H     4604  MOL4604     0.2052
  26813  O        180.0300   45.4390    7.9000 O.3   4605  MOL4605    -0.4105
  26814  H        179.7350   44.5410    7.6420 H     4605  MOL4605     0.2052
  26815  H        181.0210   45.4380    7.9470 H     4605  MOL4605     0.2052
  26816  O         42.5130   29.0200   53.5330 O.3   4606  MOL4606    -0.4105
  26817  H         42.5660   28.1870   53.0190 H     4606  MOL4606     0.2052
  26818  H         42.1720   28.8050   54.4390 H     4606  MOL4606     0.2052
  26819  O         98.7410  138.2090  263.1300 O.3   4607  MOL4607    -0.4105
  26820  H         98.2160  137.9670  262.3380 H     4607  MOL4607     0.2052
  26821  H         98.1730  138.0730  263.9320 H     4607  MOL4607     0.2052
  26822  O        127.5980   18.2450   39.3160 O.3   4608  MOL4608    -0.4105
  26823  H        127.5870   17.2690   39.2290 H     4608  MOL4608     0.2052
  26824  H        128.5360   18.5550   39.2240 H     4608  MOL4608     0.2052
  26825  O        139.7290  194.1460  208.8190 O.3   4609  MOL4609    -0.4105
  26826  H        140.5490  194.1130  209.3540 H     4609  MOL4609     0.2052
  26827  H        139.7180  195.0040  208.3210 H     4609  MOL4609     0.2052
  26828  O        134.6770   54.5290   25.2310 O.3   4610  MOL4610    -0.4105
  26829  H        133.6970   54.4950   25.2430 H     4610  MOL4610     0.2052
  26830  H        135.0200   53.5980   25.2330 H     4610  MOL4610     0.2052
  26831  O        121.2660  178.1290  176.6950 O.3   4611  MOL4611    -0.4105
  26832  H        122.1960  177.9550  176.9510 H     4611  MOL4611     0.2052
  26833  H        121.1660  179.1020  176.5300 H     4611  MOL4611     0.2052
  26834  O        151.9280   62.4890  179.3060 O.3   4612  MOL4612    -0.4105
  26835  H        151.3050   61.8060  178.9810 H     4612  MOL4612     0.2052
  26836  H        152.2080   62.2420  180.2250 H     4612  MOL4612     0.2052
  26837  O        182.8220  132.2890   25.4910 O.3   4613  MOL4613    -0.4105
  26838  H        183.3230  131.6440   26.0320 H     4613  MOL4613     0.2052
  26839  H        181.9200  131.9140   25.3160 H     4613  MOL4613     0.2052
  26840  O        188.3040  151.6370  238.7140 O.3   4614  MOL4614    -0.4105
  26841  H        188.7960  152.4110  239.0610 H     4614  MOL4614     0.2052
  26842  H        188.8190  150.8180  238.9330 H     4614  MOL4614     0.2052
  26843  O        113.7620  166.5970   81.1700 O.3   4615  MOL4615    -0.4105
  26844  H        114.7410  166.5980   81.2110 H     4615  MOL4615     0.2052
  26845  H        113.4520  167.5390   81.1250 H     4615  MOL4615     0.2052
  26846  O         17.4320   42.2890  197.6690 O.3   4616  MOL4616    -0.4105
  26847  H         17.7900   42.8200  198.4100 H     4616  MOL4616     0.2052
  26848  H         16.4490   42.2160  197.7850 H     4616  MOL4616     0.2052
  26849  O         61.6650   15.5170   26.1060 O.3   4617  MOL4617    -0.4105
  26850  H         61.6860   16.2250   25.4290 H     4617  MOL4617     0.2052
  26851  H         62.5980   15.3230   26.3820 H     4617  MOL4617     0.2052
  26852  O         54.0260  166.6840  236.8740 O.3   4618  MOL4618    -0.4105
  26853  H         54.6100  167.3820  237.2360 H     4618  MOL4618     0.2052
  26854  H         53.1080  167.0540  236.8010 H     4618  MOL4618     0.2052
  26855  O        134.9510   54.1510  231.5550 O.3   4619  MOL4619    -0.4105
  26856  H        134.3050   54.8880  231.5640 H     4619  MOL4619     0.2052
  26857  H        134.4750   53.3190  231.8130 H     4619  MOL4619     0.2052
  26858  O         78.5400  171.3820  294.6590 O.3   4620  MOL4620    -0.4105
  26859  H         79.2170  170.7030  294.4590 H     4620  MOL4620     0.2052
  26860  H         78.9440  172.2760  294.5140 H     4620  MOL4620     0.2052
  26861  O        178.1600   70.1500  266.1220 O.3   4621  MOL4621    -0.4105
  26862  H        177.7980   69.3280  266.5130 H     4621  MOL4621     0.2052
  26863  H        177.4600   70.8520  266.1720 H     4621  MOL4621     0.2052
  26864  O        134.8910   51.3320   30.3710 O.3   4622  MOL4622    -0.4105
  26865  H        135.2500   52.0880   29.8620 H     4622  MOL4622     0.2052
  26866  H        135.5800   50.6180   30.3960 H     4622  MOL4622     0.2052
  26867  O         80.4900   22.2230  298.8580 O.3   4623  MOL4623    -0.4105
  26868  H         80.0120   21.3790  298.9990 H     4623  MOL4623     0.2052
  26869  H         79.8350   22.9020  298.5500 H     4623  MOL4623     0.2052
  26870  O        132.1160   34.5400  191.0890 O.3   4624  MOL4624    -0.4105
  26871  H        132.6670   35.0680  191.7020 H     4624  MOL4624     0.2052
  26872  H        131.4690   35.1500  190.6490 H     4624  MOL4624     0.2052
  26873  O        127.7300   62.3260  219.0990 O.3   4625  MOL4625    -0.4105
  26874  H        127.4830   61.3780  219.0810 H     4625  MOL4625     0.2052
  26875  H        128.0880   62.5360  220.0000 H     4625  MOL4625     0.2052
  26876  O         12.9840  128.6580   57.6870 O.3   4626  MOL4626    -0.4105
  26877  H         13.6640  128.2830   57.0890 H     4626  MOL4626     0.2052
  26878  H         13.4460  129.1750   58.3970 H     4626  MOL4626     0.2052
  26879  O        126.2600   56.5670  270.2390 O.3   4627  MOL4627    -0.4105
  26880  H        125.3530   56.3740  269.9220 H     4627  MOL4627     0.2052
  26881  H        126.7790   55.7210  270.2270 H     4627  MOL4627     0.2052
  26882  O         26.8150  182.4430  284.0820 O.3   4628  MOL4628    -0.4105
  26883  H         27.5650  182.1750  283.5110 H     4628  MOL4628     0.2052
  26884  H         26.0180  182.5750  283.5050 H     4628  MOL4628     0.2052
  26885  O         32.8890  177.7190  232.5300 O.3   4629  MOL4629    -0.4105
  26886  H         33.7070  177.4410  232.0680 H     4629  MOL4629     0.2052
  26887  H         32.8630  177.2690  233.4140 H     4629  MOL4629     0.2052
  26888  O        135.0780  104.7400   57.0280 O.3   4630  MOL4630    -0.4105
  26889  H        134.6060  103.8980   57.1950 H     4630  MOL4630     0.2052
  26890  H        135.4700  105.0520   57.8850 H     4630  MOL4630     0.2052
  26891  O        168.7430   70.7100   41.0070 O.3   4631  MOL4631    -0.4105
  26892  H        169.0990   71.5670   41.3220 H     4631  MOL4631     0.2052
  26893  H        167.8030   70.8490   40.7220 H     4631  MOL4631     0.2052
  26894  O         18.1140  185.9340  239.2290 O.3   4632  MOL4632    -0.4105
  26895  H         18.8600  186.3200  239.7350 H     4632  MOL4632     0.2052
  26896  H         17.8860  186.5560  238.4900 H     4632  MOL4632     0.2052
  26897  O         56.9020  182.4330  219.2730 O.3   4633  MOL4633    -0.4105
  26898  H         56.2640  182.7060  219.9660 H     4633  MOL4633     0.2052
  26899  H         57.8030  182.7500  219.5390 H     4633  MOL4633     0.2052
  26900  O         28.3890   24.2770  131.7780 O.3   4634  MOL4634    -0.4105
  26901  H         28.2980   24.2380  130.8030 H     4634  MOL4634     0.2052
  26902  H         27.6350   24.8100  132.1400 H     4634  MOL4634     0.2052
  26903  O         97.0530   72.4310  236.2640 O.3   4635  MOL4635    -0.4105
  26904  H         97.5390   71.5900  236.3950 H     4635  MOL4635     0.2052
  26905  H         96.5650   72.3760  235.4020 H     4635  MOL4635     0.2052
  26906  O         99.6440   35.3700  287.3680 O.3   4636  MOL4636    -0.4105
  26907  H         99.8440   35.7330  288.2560 H     4636  MOL4636     0.2052
  26908  H         99.7830   34.3870  287.3960 H     4636  MOL4636     0.2052
  26909  O        153.3900   79.7750  214.4970 O.3   4637  MOL4637    -0.4105
  26910  H        152.6370   79.6830  213.8760 H     4637  MOL4637     0.2052
  26911  H        153.9220   80.5660  214.2240 H     4637  MOL4637     0.2052
  26912  O        151.5770  168.4340   27.7580 O.3   4638  MOL4638    -0.4105
  26913  H        151.8750  169.3590   27.8850 H     4638  MOL4638     0.2052
  26914  H        151.2130  168.3490   26.8390 H     4638  MOL4638     0.2052
  26915  O        166.9980   39.5850  231.8280 O.3   4639  MOL4639    -0.4105
  26916  H        166.2380   40.1530  231.5840 H     4639  MOL4639     0.2052
  26917  H        167.8190   40.1430  231.8160 H     4639  MOL4639     0.2052
  26918  O        155.5280  154.9670  113.6450 O.3   4640  MOL4640    -0.4105
  26919  H        155.9110  154.6450  114.4870 H     4640  MOL4640     0.2052
  26920  H        154.5440  155.0340  113.7560 H     4640  MOL4640     0.2052
  26921  O         24.6150   66.2690  214.5120 O.3   4641  MOL4641    -0.4105
  26922  H         25.3160   65.5930  214.4060 H     4641  MOL4641     0.2052
  26923  H         23.7490   65.8010  214.6400 H     4641  MOL4641     0.2052
  26924  O        129.2470   14.2830  115.6000 O.3   4642  MOL4642    -0.4105
  26925  H        129.2100   13.4440  115.0950 H     4642  MOL4642     0.2052
  26926  H        128.8260   14.9940  115.0500 H     4642  MOL4642     0.2052
  26927  O         78.5860   92.5370  174.9060 O.3   4643  MOL4643    -0.4105
  26928  H         78.1670   91.6760  175.1130 H     4643  MOL4643     0.2052
  26929  H         79.0140   92.4670  174.0140 H     4643  MOL4643     0.2052
  26930  O        134.3680   13.9170  130.5670 O.3   4644  MOL4644    -0.4105
  26931  H        133.9470   13.0480  130.7380 H     4644  MOL4644     0.2052
  26932  H        133.6630   14.5510  130.2740 H     4644  MOL4644     0.2052
  26933  O         89.7710   67.5790   70.5820 O.3   4645  MOL4645    -0.4105
  26934  H         90.5410   68.1840   70.6280 H     4645  MOL4645     0.2052
  26935  H         89.3820   67.5010   71.4910 H     4645  MOL4645     0.2052
  26936  O         94.4430  173.3310   87.3060 O.3   4646  MOL4646    -0.4105
  26937  H         95.0570  174.0660   87.1000 H     4646  MOL4646     0.2052
  26938  H         94.8770  172.4790   87.0400 H     4646  MOL4646     0.2052
  26939  O        169.9090  170.9770   14.0130 O.3   4647  MOL4647    -0.4105
  26940  H        169.1860  170.7620   13.3870 H     4647  MOL4647     0.2052
  26941  H        170.1680  170.1440   14.4860 H     4647  MOL4647     0.2052
  26942  O         10.5040   83.2940  140.3370 O.3   4648  MOL4648    -0.4105
  26943  H          9.5870   83.1470  140.6500 H     4648  MOL4648     0.2052
  26944  H         10.8460   84.1250  140.7590 H     4648  MOL4648     0.2052
  26945  O         38.8910   24.9700   63.7380 O.3   4649  MOL4649    -0.4105
  26946  H         39.7720   25.4000   63.7130 H     4649  MOL4649     0.2052
  26947  H         38.4120   25.2900   64.5460 H     4649  MOL4649     0.2052
  26948  O         49.7590  117.4910  268.1820 O.3   4650  MOL4650    -0.4105
  26949  H         49.3500  116.9970  267.4410 H     4650  MOL4650     0.2052
  26950  H         49.2680  118.3460  268.2930 H     4650  MOL4650     0.2052
  26951  O         64.0350   27.3590  207.3480 O.3   4651  MOL4651    -0.4105
  26952  H         64.5020   26.5040  207.2390 H     4651  MOL4651     0.2052
  26953  H         63.0600   27.1780  207.3770 H     4651  MOL4651     0.2052
  26954  O         40.0480    9.9660  183.0800 O.3   4652  MOL4652    -0.4105
  26955  H         39.4050    9.4200  182.5820 H     4652  MOL4652     0.2052
  26956  H         40.2650   10.7650  182.5340 H     4652  MOL4652     0.2052
  26957  O        178.2300   31.5560  129.9070 O.3   4653  MOL4653    -0.4105
  26958  H        177.4530   31.4420  130.4940 H     4653  MOL4653     0.2052
  26959  H        178.6490   30.6680  129.7700 H     4653  MOL4653     0.2052
  26960  O         73.4760   84.4980   76.5260 O.3   4654  MOL4654    -0.4105
  26961  H         73.5170   85.1040   77.2950 H     4654  MOL4654     0.2052
  26962  H         74.4040   84.2610   76.2670 H     4654  MOL4654     0.2052
  26963  O         11.0160  135.6910   27.4550 O.3   4655  MOL4655    -0.4105
  26964  H         11.5820  134.9060   27.6080 H     4655  MOL4655     0.2052
  26965  H         10.2220  135.6220   28.0450 H     4655  MOL4655     0.2052
  26966  O        175.6530  174.0130   42.8260 O.3   4656  MOL4656    -0.4105
  26967  H        175.0200  174.4470   43.4350 H     4656  MOL4656     0.2052
  26968  H        175.4550  173.0410   42.8130 H     4656  MOL4656     0.2052
  26969  O        197.8050  191.9870  270.7950 O.3   4657  MOL4657    -0.4105
  26970  H        197.1200  192.5420  271.2240 H     4657  MOL4657     0.2052
  26971  H        198.6640  192.1310  271.2700 H     4657  MOL4657     0.2052
  26972  O         70.4810   85.8890  260.3940 O.3   4658  MOL4658    -0.4105
  26973  H         70.1540   86.6130  260.9680 H     4658  MOL4658     0.2052
  26974  H         71.4210   86.0890  260.1460 H     4658  MOL4658     0.2052
  26975  O        134.7040  172.1780   50.2510 O.3   4659  MOL4659    -0.4105
  26976  H        134.6110  171.3770   50.8080 H     4659  MOL4659     0.2052
  26977  H        135.6690  172.3180   50.0660 H     4659  MOL4659     0.2052
  26978  O        181.3870  148.8230   61.6710 O.3   4660  MOL4660    -0.4105
  26979  H        180.4380  148.9040   61.9010 H     4660  MOL4660     0.2052
  26980  H        181.8270  149.6920   61.8610 H     4660  MOL4660     0.2052
  26981  O        173.8730   58.1530   13.0970 O.3   4661  MOL4661    -0.4105
  26982  H        174.4830   57.5730   12.5950 H     4661  MOL4661     0.2052
  26983  H        172.9590   58.0350   12.7290 H     4661  MOL4661     0.2052
  26984  O        108.9850  167.6900  206.4360 O.3   4662  MOL4662    -0.4105
  26985  H        109.5340  168.4800  206.2510 H     4662  MOL4662     0.2052
  26986  H        109.5760  166.9770  206.7900 H     4662  MOL4662     0.2052
  26987  O        156.8990  150.6800  119.6490 O.3   4663  MOL4663    -0.4105
  26988  H        157.8260  150.3880  119.5230 H     4663  MOL4663     0.2052
  26989  H        156.8980  151.4500  120.2740 H     4663  MOL4663     0.2052
  26990  O         64.4790  152.7750   38.9150 O.3   4664  MOL4664    -0.4105
  26991  H         63.5350  152.5650   39.0760 H     4664  MOL4664     0.2052
  26992  H         64.5990  153.7560   39.0030 H     4664  MOL4664     0.2052
  26993  O        153.0440   12.7770  260.9780 O.3   4665  MOL4665    -0.4105
  26994  H        152.7260   11.9020  261.2840 H     4665  MOL4665     0.2052
  26995  H        152.2690   13.3960  260.9460 H     4665  MOL4665     0.2052
  26996  O         80.7410  193.0790  151.0140 O.3   4666  MOL4666    -0.4105
  26997  H         81.3190  193.5370  151.6600 H     4666  MOL4666     0.2052
  26998  H         79.8440  193.5010  151.0470 H     4666  MOL4666     0.2052
  26999  O        159.7090  132.3070  254.2610 O.3   4667  MOL4667    -0.4105
  27000  H        158.8970  131.7700  254.1480 H     4667  MOL4667     0.2052
  27001  H        159.4390  133.2230  254.5320 H     4667  MOL4667     0.2052
  27002  O         81.6710   74.7660  236.2980 O.3   4668  MOL4668    -0.4105
  27003  H         82.1150   75.5050  236.7640 H     4668  MOL4668     0.2052
  27004  H         82.3700   74.1780  235.9100 H     4668  MOL4668     0.2052
  27005  O         18.1330  122.1420  189.5930 O.3   4669  MOL4669    -0.4105
  27006  H         17.6600  121.2860  189.5310 H     4669  MOL4669     0.2052
  27007  H         19.1020  121.9550  189.6920 H     4669  MOL4669     0.2052
  27008  O        197.6660    5.9090  174.2500 O.3   4670  MOL4670    -0.4105
  27009  H        196.9150    5.9190  173.6210 H     4670  MOL4670     0.2052
  27010  H        197.8280    4.9700  174.5250 H     4670  MOL4670     0.2052
  27011  O          4.3950  170.1220    0.8780 O.3   4671  MOL4671    -0.4105
  27012  H          4.1010  169.4990    1.5750 H     4671  MOL4671     0.2052
  27013  H          4.3590  169.6510    0.0060 H     4671  MOL4671     0.2052
  27014  O         24.6440  130.5910  225.8070 O.3   4672  MOL4672    -0.4105
  27015  H         25.2720  129.9130  226.1330 H     4672  MOL4672     0.2052
  27016  H         24.0340  130.1600  225.1540 H     4672  MOL4672     0.2052
  27017  O         45.5360  147.9420  297.8580 O.3   4673  MOL4673    -0.4105
  27018  H         45.8130  148.6750  298.4460 H     4673  MOL4673     0.2052
  27019  H         46.1640  147.1850  297.9880 H     4673  MOL4673     0.2052
  27020  O        110.3510  142.0570  194.1390 O.3   4674  MOL4674    -0.4105
  27021  H        110.6680  141.2760  193.6380 H     4674  MOL4674     0.2052
  27022  H        111.1350  142.6270  194.3530 H     4674  MOL4674     0.2052
  27023  O         39.6930   38.3370   65.9370 O.3   4675  MOL4675    -0.4105
  27024  H         38.7710   38.2830   66.2650 H     4675  MOL4675     0.2052
  27025  H         40.3000   38.0630   66.6730 H     4675  MOL4675     0.2052
  27026  O         47.8080   60.3170  111.7520 O.3   4676  MOL4676    -0.4105
  27027  H         48.0310   59.3770  111.5900 H     4676  MOL4676     0.2052
  27028  H         48.4190   60.6650  112.4520 H     4676  MOL4676     0.2052
  27029  O        150.0920    2.2620   81.5530 O.3   4677  MOL4677    -0.4105
  27030  H        149.6570    1.5320   82.0420 H     4677  MOL4677     0.2052
  27031  H        150.9660    1.9320   81.2170 H     4677  MOL4677     0.2052
  27032  O         52.0620   29.1390  254.3980 O.3   4678  MOL4678    -0.4105
  27033  H         51.1530   29.5060  254.4220 H     4678  MOL4678     0.2052
  27034  H         52.0030   28.1550  254.5140 H     4678  MOL4678     0.2052
  27035  O        172.8600  102.5340   34.4700 O.3   4679  MOL4679    -0.4105
  27036  H        173.4330  103.2240   34.0740 H     4679  MOL4679     0.2052
  27037  H        172.0980  102.9840   34.9180 H     4679  MOL4679     0.2052
  27038  O         79.9390   15.3080  143.8760 O.3   4680  MOL4680    -0.4105
  27039  H         79.6290   16.1990  144.1440 H     4680  MOL4680     0.2052
  27040  H         79.4310   15.0330  143.0690 H     4680  MOL4680     0.2052
  27041  O         78.8350  143.7280  164.5740 O.3   4681  MOL4681    -0.4105
  27042  H         79.5700  143.1060  164.7580 H     4681  MOL4681     0.2052
  27043  H         78.2340  143.7410  165.3640 H     4681  MOL4681     0.2052
  27044  O        118.9300  126.2590  196.3680 O.3   4682  MOL4682    -0.4105
  27045  H        119.5460  127.0200  196.3350 H     4682  MOL4682     0.2052
  27046  H        118.1280  126.5310  196.8850 H     4682  MOL4682     0.2052
  27047  O        165.9720   43.9190   97.5810 O.3   4683  MOL4683    -0.4105
  27048  H        166.0690   42.9520   97.4520 H     4683  MOL4683     0.2052
  27049  H        166.4700   44.1740   98.4010 H     4683  MOL4683     0.2052
  27050  O         81.8490   92.3930  243.1660 O.3   4684  MOL4684    -0.4105
  27051  H         82.6090   93.0110  243.1680 H     4684  MOL4684     0.2052
  27052  H         82.2030   91.4660  243.1640 H     4684  MOL4684     0.2052
  27053  O         76.1760  154.3010  261.3690 O.3   4685  MOL4685    -0.4105
  27054  H         75.2940  154.0190  261.0490 H     4685  MOL4685     0.2052
  27055  H         76.2060  155.2930  261.3630 H     4685  MOL4685     0.2052
  27056  O         26.5970  133.9390  118.2600 O.3   4686  MOL4686    -0.4105
  27057  H         26.5020  132.9780  118.0900 H     4686  MOL4686     0.2052
  27058  H         27.1730  134.3250  117.5510 H     4686  MOL4686     0.2052
  27059  O         52.4000  183.6500  247.2970 O.3   4687  MOL4687    -0.4105
  27060  H         52.1640  182.6990  247.2870 H     4687  MOL4687     0.2052
  27061  H         53.3850  183.7260  247.2020 H     4687  MOL4687     0.2052
  27062  O          7.4560  195.6730   33.0570 O.3   4688  MOL4688    -0.4105
  27063  H          8.1850  195.1470   33.4480 H     4688  MOL4688     0.2052
  27064  H          7.8150  196.5630   32.8070 H     4688  MOL4688     0.2052
  27065  O        101.2060  179.3120  246.2190 O.3   4689  MOL4689    -0.4105
  27066  H        100.8540  178.8230  246.9920 H     4689  MOL4689     0.2052
  27067  H        102.1000  178.9410  245.9990 H     4689  MOL4689     0.2052
  27068  O        109.3080   66.7410  245.2930 O.3   4690  MOL4690    -0.4105
  27069  H        108.4030   67.1150  245.2500 H     4690  MOL4690     0.2052
  27070  H        109.3180   66.0300  245.9860 H     4690  MOL4690     0.2052
  27071  O        198.3510   90.9190  238.9800 O.3   4691  MOL4691    -0.4105
  27072  H        197.9150   91.1320  239.8320 H     4691  MOL4691     0.2052
  27073  H        197.8650   91.3910  238.2550 H     4691  MOL4691     0.2052
  27074  O        113.2260  169.5800  229.9530 O.3   4692  MOL4692    -0.4105
  27075  H        113.6060  169.1050  229.1850 H     4692  MOL4692     0.2052
  27076  H        113.9660  169.8130  230.5710 H     4692  MOL4692     0.2052
  27077  O          5.0070   74.0580  257.5390 O.3   4693  MOL4693    -0.4105
  27078  H          5.3590   73.2350  257.9370 H     4693  MOL4693     0.2052
  27079  H          4.2770   73.8120  256.9120 H     4693  MOL4693     0.2052
  27080  O        139.9860   73.0720  183.6900 O.3   4694  MOL4694    -0.4105
  27081  H        139.0560   73.3210  183.5100 H     4694  MOL4694     0.2052
  27082  H        140.0720   72.0900  183.5800 H     4694  MOL4694     0.2052
  27083  O          8.3790  125.9320  213.8620 O.3   4695  MOL4695    -0.4105
  27084  H          8.7260  125.9590  212.9460 H     4695  MOL4695     0.2052
  27085  H          7.7350  126.6780  213.9720 H     4695  MOL4695     0.2052
  27086  O        111.5000   13.0490  257.7250 O.3   4696  MOL4696    -0.4105
  27087  H        110.8980   13.7950  257.9320 H     4696  MOL4696     0.2052
  27088  H        111.4940   12.9090  256.7420 H     4696  MOL4696     0.2052
  27089  O         73.2870  179.8330  162.0100 O.3   4697  MOL4697    -0.4105
  27090  H         73.5800  179.4440  162.8610 H     4697  MOL4697     0.2052
  27091  H         72.4710  179.3510  161.7140 H     4697  MOL4697     0.2052
  27092  O         44.6440   39.3600    6.7250 O.3   4698  MOL4698    -0.4105
  27093  H         44.9080   40.3030    6.7210 H     4698  MOL4698     0.2052
  27094  H         43.6530   39.3140    6.7260 H     4698  MOL4698     0.2052
  27095  O         94.0950  187.0150  277.7540 O.3   4699  MOL4699    -0.4105
  27096  H         93.6390  186.8680  276.8990 H     4699  MOL4699     0.2052
  27097  H         94.3640  187.9690  277.8030 H     4699  MOL4699     0.2052
  27098  O        110.7090  177.1930   19.4630 O.3   4700  MOL4700    -0.4105
  27099  H        110.7840  176.2280   19.6140 H     4700  MOL4700     0.2052
  27100  H        111.5760  177.5200   19.1060 H     4700  MOL4700     0.2052
  27101  O        176.2090   18.7830   93.7140 O.3   4701  MOL4701    -0.4105
  27102  H        176.8740   18.0780   93.5700 H     4701  MOL4701     0.2052
  27103  H        176.6920   19.6300   93.9020 H     4701  MOL4701     0.2052
  27104  O        168.1590  150.5060  221.0750 O.3   4702  MOL4702    -0.4105
  27105  H        167.3410  149.9690  221.0320 H     4702  MOL4702     0.2052
  27106  H        168.9360  149.8890  221.0890 H     4702  MOL4702     0.2052
  27107  O        131.1570   15.5900  272.5380 O.3   4703  MOL4703    -0.4105
  27108  H        130.8380   16.2190  271.8570 H     4703  MOL4703     0.2052
  27109  H        131.0350   16.0090  273.4290 H     4703  MOL4703     0.2052
  27110  O        177.1080  138.4080  111.3080 O.3   4704  MOL4704    -0.4105
  27111  H        177.0170  139.3370  111.0120 H     4704  MOL4704     0.2052
  27112  H        177.5770  137.8990  110.5960 H     4704  MOL4704     0.2052
  27113  O        164.5520  142.1350  257.1980 O.3   4705  MOL4705    -0.4105
  27114  H        164.8990  141.2200  257.2620 H     4705  MOL4705     0.2052
  27115  H        163.5620  142.0870  257.1430 H     4705  MOL4705     0.2052
  27116  O        142.3530   62.4520   75.0200 O.3   4706  MOL4706    -0.4105
  27117  H        143.2610   62.2070   74.7440 H     4706  MOL4706     0.2052
  27118  H        141.7920   61.6340   74.9990 H     4706  MOL4706     0.2052
  27119  O        150.0330   16.8570  272.7170 O.3   4707  MOL4707    -0.4105
  27120  H        150.5430   16.2020  272.1980 H     4707  MOL4707     0.2052
  27121  H        150.2130   17.7580  272.3430 H     4707  MOL4707     0.2052
  27122  O        132.1670   44.2940   65.8810 O.3   4708  MOL4708    -0.4105
  27123  H        133.0130   43.9080   66.1900 H     4708  MOL4708     0.2052
  27124  H        132.2880   45.2750   65.7930 H     4708  MOL4708     0.2052
  27125  O        186.3530  182.1930  123.0900 O.3   4709  MOL4709    -0.4105
  27126  H        185.5320  182.1510  122.5570 H     4709  MOL4709     0.2052
  27127  H        186.5140  181.2970  123.4850 H     4709  MOL4709     0.2052
  27128  O         18.8780  114.3890  249.4370 O.3   4710  MOL4710    -0.4105
  27129  H         19.8430  114.3520  249.6070 H     4710  MOL4710     0.2052
  27130  H         18.6750  113.7900  248.6730 H     4710  MOL4710     0.2052
  27131  O        182.4330   44.6200  252.7270 O.3   4711  MOL4711    -0.4105
  27132  H        182.6060   44.0700  251.9350 H     4711  MOL4711     0.2052
  27133  H        183.2920   45.0240  253.0180 H     4711  MOL4711     0.2052
  27134  O         56.0510  178.4510   95.0770 O.3   4712  MOL4712    -0.4105
  27135  H         56.8550  177.9030   95.1980 H     4712  MOL4712     0.2052
  27136  H         55.9260  179.0030   95.8930 H     4712  MOL4712     0.2052
  27137  O        160.6070   20.7230  143.9820 O.3   4713  MOL4713    -0.4105
  27138  H        160.9000   19.8150  144.2080 H     4713  MOL4713     0.2052
  27139  H        161.1540   21.0450  143.2200 H     4713  MOL4713     0.2052
  27140  O        173.1390  176.8640  192.8300 O.3   4714  MOL4714    -0.4105
  27141  H        173.8150  177.5220  193.0930 H     4714  MOL4714     0.2052
  27142  H        173.5250  176.2870  192.1210 H     4714  MOL4714     0.2052
  27143  O         88.0090  159.3050  286.4660 O.3   4715  MOL4715    -0.4105
  27144  H         88.9010  159.2320  286.0660 H     4715  MOL4715     0.2052
  27145  H         87.9950  158.7620  287.2970 H     4715  MOL4715     0.2052
  27146  O        156.2380  160.0260  184.0450 O.3   4716  MOL4716    -0.4105
  27147  H        156.4220  160.9300  184.3770 H     4716  MOL4716     0.2052
  27148  H        155.3840  160.0480  183.5410 H     4716  MOL4716     0.2052
  27149  O        180.1510   99.7720  212.6580 O.3   4717  MOL4717    -0.4105
  27150  H        180.4630   98.8930  212.9610 H     4717  MOL4717     0.2052
  27151  H        180.8360  100.4460  212.9030 H     4717  MOL4717     0.2052
  27152  O        171.6420  197.8200  270.6230 O.3   4718  MOL4718    -0.4105
  27153  H        171.1310  197.9950  271.4400 H     4718  MOL4718     0.2052
  27154  H        172.3390  197.1450  270.8320 H     4718  MOL4718     0.2052
  27155  O        165.5010   25.0220    7.4740 O.3   4719  MOL4719    -0.4105
  27156  H        165.2950   25.9750    7.5740 H     4719  MOL4719     0.2052
  27157  H        164.6690   24.5500    7.2090 H     4719  MOL4719     0.2052
  27158  O         39.2330   67.2060  259.8920 O.3   4720  MOL4720    -0.4105
  27159  H         40.2040   67.1140  259.7970 H     4720  MOL4720     0.2052
  27160  H         38.8610   66.3230  260.1490 H     4720  MOL4720     0.2052
  27161  O         17.5500  138.5660  116.9180 O.3   4721  MOL4721    -0.4105
  27162  H         18.0480  138.3960  116.0920 H     4721  MOL4721     0.2052
  27163  H         18.0500  139.2390  117.4500 H     4721  MOL4721     0.2052
  27164  O         69.9750  167.1680   86.1290 O.3   4722  MOL4722    -0.4105
  27165  H         70.3190  167.7720   85.4380 H     4722  MOL4722     0.2052
  27166  H         69.9200  167.6720   86.9830 H     4722  MOL4722     0.2052
  27167  O         12.7880   78.9670    8.9030 O.3   4723  MOL4723    -0.4105
  27168  H         13.1640   79.6250    9.5250 H     4723  MOL4723     0.2052
  27169  H         12.8230   78.0750    9.3360 H     4723  MOL4723     0.2052
  27170  O         24.7650   58.4380   81.8300 O.3   4724  MOL4724    -0.4105
  27171  H         23.9630   58.9380   82.0900 H     4724  MOL4724     0.2052
  27172  H         25.5270   59.0720   81.7910 H     4724  MOL4724     0.2052
  27173  O         85.1410   21.7410  120.0620 O.3   4725  MOL4725    -0.4105
  27174  H         84.6430   21.5020  120.8720 H     4725  MOL4725     0.2052
  27175  H         84.9600   22.6940  119.8560 H     4725  MOL4725     0.2052
  27176  O          5.0050  198.8770  224.7110 O.3   4726  MOL4726    -0.4105
  27177  H          5.9660  199.0190  224.8390 H     4726  MOL4726     0.2052
  27178  H          4.5660  199.7650  224.6510 H     4726  MOL4726     0.2052
  27179  O        109.9420   99.3430  162.6270 O.3   4727  MOL4727    -0.4105
  27180  H        109.0720   99.7270  162.8630 H     4727  MOL4727     0.2052
  27181  H        109.8260   98.3660  162.5010 H     4727  MOL4727     0.2052
  27182  O        159.8200   93.8130  273.5710 O.3   4728  MOL4728    -0.4105
  27183  H        159.2790   94.6080  273.7630 H     4728  MOL4728     0.2052
  27184  H        160.7470   94.1080  273.3770 H     4728  MOL4728     0.2052
  27185  O         41.4240   49.6480  193.0200 O.3   4729  MOL4729    -0.4105
  27186  H         40.6350   50.1030  193.3830 H     4729  MOL4729     0.2052
  27187  H         41.7160   48.9630  193.6750 H     4729  MOL4729     0.2052
  27188  O        172.3990  167.6000  134.1140 O.3   4730  MOL4730    -0.4105
  27189  H        171.6890  168.2540  133.9460 H     4730  MOL4730     0.2052
  27190  H        171.9750  166.7250  134.3120 H     4730  MOL4730     0.2052
  27191  O         34.3420  185.8780  115.3010 O.3   4731  MOL4731    -0.4105
  27192  H         33.9870  186.1900  114.4420 H     4731  MOL4731     0.2052
  27193  H         35.3320  185.8790  115.2460 H     4731  MOL4731     0.2052
  27194  O        117.9040  125.0460  203.5730 O.3   4732  MOL4732    -0.4105
  27195  H        117.8400  125.5030  204.4370 H     4732  MOL4732     0.2052
  27196  H        118.6790  125.4210  203.0800 H     4732  MOL4732     0.2052
  27197  O         51.4200  172.2250  251.0380 O.3   4733  MOL4733    -0.4105
  27198  H         51.7070  173.1550  250.9260 H     4733  MOL4733     0.2052
  27199  H         50.5090  172.1330  250.6560 H     4733  MOL4733     0.2052
  27200  O         61.3760  117.7670  205.5700 O.3   4734  MOL4734    -0.4105
  27201  H         61.7110  118.6860  205.5100 H     4734  MOL4734     0.2052
  27202  H         60.4690  117.7920  205.9710 H     4734  MOL4734     0.2052
  27203  O         21.2530   50.5250  229.0510 O.3   4735  MOL4735    -0.4105
  27204  H         22.2290   50.5300  228.9590 H     4735  MOL4735     0.2052
  27205  H         20.9160   49.6470  228.7330 H     4735  MOL4735     0.2052
  27206  O         69.1090  194.6710  146.3230 O.3   4736  MOL4736    -0.4105
  27207  H         68.4920  194.7240  145.5640 H     4736  MOL4736     0.2052
  27208  H         68.8530  193.8880  146.8770 H     4736  MOL4736     0.2052
  27209  O         22.9570   33.2800  175.9660 O.3   4737  MOL4737    -0.4105
  27210  H         22.9730   32.4220  176.4400 H     4737  MOL4737     0.2052
  27211  H         23.4300   33.9510  176.5230 H     4737  MOL4737     0.2052
  27212  O        176.4430   77.1580  265.6020 O.3   4738  MOL4738    -0.4105
  27213  H        176.3690   76.1820  265.5570 H     4738  MOL4738     0.2052
  27214  H        177.3040   77.4230  265.1850 H     4738  MOL4738     0.2052
  27215  O         31.0870   12.8750   12.9690 O.3   4739  MOL4739    -0.4105
  27216  H         31.6030   12.0430   12.9190 H     4739  MOL4739     0.2052
  27217  H         30.4820   12.8190   13.7540 H     4739  MOL4739     0.2052
  27218  O         91.4020  196.7320   15.5100 O.3   4740  MOL4740    -0.4105
  27219  H         92.2930  197.1250   15.6170 H     4740  MOL4740     0.2052
  27220  H         91.5080  195.7560   15.3670 H     4740  MOL4740     0.2052
  27221  O         92.5770  173.3900   45.5820 O.3   4741  MOL4741    -0.4105
  27222  H         93.5560  173.3840   45.5360 H     4741  MOL4741     0.2052
  27223  H         92.2590  174.2840   45.2930 H     4741  MOL4741     0.2052
  27224  O         52.4420   10.0680  280.3330 O.3   4742  MOL4742    -0.4105
  27225  H         51.5240    9.9460  280.6540 H     4742  MOL4742     0.2052
  27226  H         52.8350    9.1730  280.1650 H     4742  MOL4742     0.2052
  27227  O        122.3670   80.4000  293.5260 O.3   4743  MOL4743    -0.4105
  27228  H        121.4680   80.7200  293.7500 H     4743  MOL4743     0.2052
  27229  H        122.3580   80.0800  292.5870 H     4743  MOL4743     0.2052
  27230  O        179.8700   43.8380  129.1960 O.3   4744  MOL4744    -0.4105
  27231  H        180.3460   43.2380  129.8070 H     4744  MOL4744     0.2052
  27232  H        180.5020   44.5440  128.8990 H     4744  MOL4744     0.2052
  27233  O        188.3170   61.9530  193.5520 O.3   4745  MOL4745    -0.4105
  27234  H        188.0290   61.0300  193.7090 H     4745  MOL4745     0.2052
  27235  H        188.8460   62.2500  194.3380 H     4745  MOL4745     0.2052
  27236  O         30.2760   20.6910  278.4540 O.3   4746  MOL4746    -0.4105
  27237  H         29.3760   20.3150  278.3700 H     4746  MOL4746     0.2052
  27238  H         30.8040   20.1020  279.0530 H     4746  MOL4746     0.2052
  27239  O         53.3130   61.1710  214.4380 O.3   4747  MOL4747    -0.4105
  27240  H         52.8010   61.2330  213.6040 H     4747  MOL4747     0.2052
  27241  H         53.3960   62.0820  214.8210 H     4747  MOL4747     0.2052
  27242  O        148.7280   52.7720  279.7560 O.3   4748  MOL4748    -0.4105
  27243  H        148.8790   51.8040  279.7300 H     4748  MOL4748     0.2052
  27244  H        149.6110   53.2250  279.7590 H     4748  MOL4748     0.2052
  27245  O          1.5860  108.9990   31.2720 O.3   4749  MOL4749    -0.4105
  27246  H          1.7680  108.3430   31.9760 H     4749  MOL4749     0.2052
  27247  H          1.8620  108.6070   30.4030 H     4749  MOL4749     0.2052
  27248  O         79.6860  119.7600   77.4870 O.3   4750  MOL4750    -0.4105
  27249  H         78.7870  120.0050   77.1810 H     4750  MOL4750     0.2052
  27250  H         80.1410  120.5830   77.8030 H     4750  MOL4750     0.2052
  27251  O        113.4560  145.9950  248.4530 O.3   4751  MOL4751    -0.4105
  27252  H        114.1820  145.3500  248.5850 H     4751  MOL4751     0.2052
  27253  H        112.7120  145.5330  247.9870 H     4751  MOL4751     0.2052
  27254  O        190.0300  184.4530  129.0600 O.3   4752  MOL4752    -0.4105
  27255  H        190.5230  183.6110  129.1530 H     4752  MOL4752     0.2052
  27256  H        189.6970  184.7180  129.9570 H     4752  MOL4752     0.2052
  27257  O        114.2900  173.5790   63.3830 O.3   4753  MOL4753    -0.4105
  27258  H        113.8600  172.7030   63.4770 H     4753  MOL4753     0.2052
  27259  H        115.2670  173.4350   63.2770 H     4753  MOL4753     0.2052
  27260  O        182.5970  190.4350  231.1450 O.3   4754  MOL4754    -0.4105
  27261  H        181.8220  191.0250  231.2570 H     4754  MOL4754     0.2052
  27262  H        183.2530  190.8930  230.5590 H     4754  MOL4754     0.2052
  27263  O        170.2870  178.9060  255.6080 O.3   4755  MOL4755    -0.4105
  27264  H        169.3110  178.9770  255.6570 H     4755  MOL4755     0.2052
  27265  H        170.6720  179.3800  256.3900 H     4755  MOL4755     0.2052
  27266  O         23.0520  187.2170  106.0470 O.3   4756  MOL4756    -0.4105
  27267  H         22.1290  186.9740  106.2700 H     4756  MOL4756     0.2052
  27268  H         23.0270  187.9690  105.4000 H     4756  MOL4756     0.2052
  27269  O        129.7350  114.3590  211.7840 O.3   4757  MOL4757    -0.4105
  27270  H        128.9300  114.8750  211.5660 H     4757  MOL4757     0.2052
  27271  H        129.5180  113.3950  211.6960 H     4757  MOL4757     0.2052
  27272  O        182.1820   16.3230  145.2320 O.3   4758  MOL4758    -0.4105
  27273  H        181.4760   17.0020  145.1990 H     4758  MOL4758     0.2052
  27274  H        183.0590   16.7850  145.1770 H     4758  MOL4758     0.2052
  27275  O        169.4350  191.4150  259.8140 O.3   4759  MOL4759    -0.4105
  27276  H        170.2790  191.1690  259.3800 H     4759  MOL4759     0.2052
  27277  H        169.0120  192.1380  259.2830 H     4759  MOL4759     0.2052
  27278  O        122.0980  100.7800   65.5270 O.3   4760  MOL4760    -0.4105
  27279  H        122.3310  101.6720   65.8600 H     4760  MOL4760     0.2052
  27280  H        121.6640  100.2770   66.2640 H     4760  MOL4760     0.2052
  27281  O         64.7960  171.7070  198.1450 O.3   4761  MOL4761    -0.4105
  27282  H         64.7640  171.1540  198.9540 H     4761  MOL4761     0.2052
  27283  H         64.5800  171.1310  197.3670 H     4761  MOL4761     0.2052
  27284  O        129.7470  134.3890   28.3890 O.3   4762  MOL4762    -0.4105
  27285  H        129.0940  134.6050   27.6910 H     4762  MOL4762     0.2052
  27286  H        129.3730  134.6760   29.2630 H     4762  MOL4762     0.2052
  27287  O         44.0690   52.7330  255.0230 O.3   4763  MOL4763    -0.4105
  27288  H         43.7930   53.6730  254.9840 H     4763  MOL4763     0.2052
  27289  H         43.8590   52.3850  255.9290 H     4763  MOL4763     0.2052
  27290  O         31.0320  120.7900  134.0950 O.3   4764  MOL4764    -0.4105
  27291  H         30.9270  119.9940  133.5340 H     4764  MOL4764     0.2052
  27292  H         30.2290  121.3610  133.9780 H     4764  MOL4764     0.2052
  27293  O         99.3410   72.0680  228.5730 O.3   4765  MOL4765    -0.4105
  27294  H         98.4590   72.4950  228.5460 H     4765  MOL4765     0.2052
  27295  H         99.2150   71.0900  228.4590 H     4765  MOL4765     0.2052
  27296  O        197.3380   68.8010  233.9060 O.3   4766  MOL4766    -0.4105
  27297  H        197.0810   69.0350  232.9890 H     4766  MOL4766     0.2052
  27298  H        197.1130   69.5670  234.4960 H     4766  MOL4766     0.2052
  27299  O        152.4400    9.5560  205.5540 O.3   4767  MOL4767    -0.4105
  27300  H        152.2830   10.5220  205.5960 H     4767  MOL4767     0.2052
  27301  H        151.5790    9.0940  205.7290 H     4767  MOL4767     0.2052
  27302  O        168.4380   47.0090  244.3530 O.3   4768  MOL4768    -0.4105
  27303  H        169.0580   47.0140  245.1120 H     4768  MOL4768     0.2052
  27304  H        167.7960   46.2640  244.4830 H     4768  MOL4768     0.2052
  27305  O        197.0820   95.8780  178.1130 O.3   4769  MOL4769    -0.4105
  27306  H        197.0760   94.9140  177.9350 H     4769  MOL4769     0.2052
  27307  H        197.5230   96.3320  177.3480 H     4769  MOL4769     0.2052
  27308  O         81.3790   36.3140  280.7650 O.3   4770  MOL4770    -0.4105
  27309  H         82.2120   36.8300  280.7520 H     4770  MOL4770     0.2052
  27310  H         81.6090   35.3530  280.6740 H     4770  MOL4770     0.2052
  27311  O         35.1640  153.6610  241.8390 O.3   4771  MOL4771    -0.4105
  27312  H         35.7730  152.9070  241.9830 H     4771  MOL4771     0.2052
  27313  H         34.2660  153.2980  241.6240 H     4771  MOL4771     0.2052
  27314  O         86.9180  151.9480   64.7580 O.3   4772  MOL4772    -0.4105
  27315  H         86.5790  152.3240   63.9190 H     4772  MOL4772     0.2052
  27316  H         87.6790  152.5060   65.0630 H     4772  MOL4772     0.2052
  27317  O         28.2270  127.1960   20.4960 O.3   4773  MOL4773    -0.4105
  27318  H         28.1550  126.6510   19.6850 H     4773  MOL4773     0.2052
  27319  H         28.5880  126.6240   21.2230 H     4773  MOL4773     0.2052
  27320  O         52.6910  146.3260    4.1490 O.3   4774  MOL4774    -0.4105
  27321  H         51.9290  146.0130    3.6180 H     4774  MOL4774     0.2052
  27322  H         52.7700  147.3080    4.0300 H     4774  MOL4774     0.2052
  27323  O        187.3410   16.9600  193.0650 O.3   4775  MOL4775    -0.4105
  27324  H        187.8340   16.1870  192.7190 H     4775  MOL4775     0.2052
  27325  H        186.4770   17.0200  192.5790 H     4775  MOL4775     0.2052
  27326  O         52.3640   92.9710   70.5460 O.3   4776  MOL4776    -0.4105
  27327  H         53.2660   93.2930   70.7520 H     4776  MOL4776     0.2052
  27328  H         51.7220   93.4420   71.1380 H     4776  MOL4776     0.2052
  27329  O         65.1580    8.8990  130.2190 O.3   4777  MOL4777    -0.4105
  27330  H         64.5260    9.6030  130.4750 H     4777  MOL4777     0.2052
  27331  H         66.0380    9.1080  130.6250 H     4777  MOL4777     0.2052
  27332  O        187.1230   80.0270   93.0010 O.3   4778  MOL4778    -0.4105
  27333  H        187.7600   80.1640   93.7330 H     4778  MOL4778     0.2052
  27334  H        187.4790   80.4760   92.1910 H     4778  MOL4778     0.2052
  27335  O        189.5560    7.7260  211.8010 O.3   4779  MOL4779    -0.4105
  27336  H        188.7400    7.1870  211.7360 H     4779  MOL4779     0.2052
  27337  H        190.2790    7.1520  212.1650 H     4779  MOL4779     0.2052
  27338  O        146.2600  136.0880    3.1290 O.3   4780  MOL4780    -0.4105
  27339  H        146.4630  135.1840    2.8110 H     4780  MOL4780     0.2052
  27340  H        146.6780  136.7380    2.5060 H     4780  MOL4780     0.2052
  27341  O        195.9140   79.7030  151.3920 O.3   4781  MOL4781    -0.4105
  27342  H        196.7450   80.0980  151.0560 H     4781  MOL4781     0.2052
  27343  H        195.7600   80.0390  152.3130 H     4781  MOL4781     0.2052
  27344  O        155.2450  111.9800   20.6410 O.3   4782  MOL4782    -0.4105
  27345  H        156.1860  111.7640   20.4700 H     4782  MOL4782     0.2052
  27346  H        155.1870  112.9400   20.8850 H     4782  MOL4782     0.2052
  27347  O        181.4030  161.6290   81.1630 O.3   4783  MOL4783    -0.4105
  27348  H        181.5470  160.6770   81.3470 H     4783  MOL4783     0.2052
  27349  H        181.6260  161.7980   80.2110 H     4783  MOL4783     0.2052
  27350  O        104.2450   79.2300  240.8330 O.3   4784  MOL4784    -0.4105
  27351  H        104.9400   79.9100  240.7070 H     4784  MOL4784     0.2052
  27352  H        104.5810   78.5600  241.4820 H     4784  MOL4784     0.2052
  27353  O        139.0290  160.0210   22.6690 O.3   4785  MOL4785    -0.4105
  27354  H        139.2010  160.0750   23.6320 H     4785  MOL4785     0.2052
  27355  H        138.0480  159.9570   22.5330 H     4785  MOL4785     0.2052
  27356  O        119.2690  153.5430  283.3780 O.3   4786  MOL4786    -0.4105
  27357  H        119.4070  152.8470  284.0550 H     4786  MOL4786     0.2052
  27358  H        118.7670  153.1440  282.6210 H     4786  MOL4786     0.2052
  27359  O         98.8550   64.1270  267.6750 O.3   4787  MOL4787    -0.4105
  27360  H         97.9050   64.2640  267.8710 H     4787  MOL4787     0.2052
  27361  H         99.0560   63.1600  267.7700 H     4787  MOL4787     0.2052
  27362  O        193.0840   81.6560  126.9810 O.3   4788  MOL4788    -0.4105
  27363  H        193.3990   82.2570  126.2750 H     4788  MOL4788     0.2052
  27364  H        193.5140   81.9260  127.8340 H     4788  MOL4788     0.2052
  27365  O        163.7300  116.3610  294.3350 O.3   4789  MOL4789    -0.4105
  27366  H        164.5610  116.3120  293.8180 H     4789  MOL4789     0.2052
  27367  H        163.3340  115.4520  294.3750 H     4789  MOL4789     0.2052
  27368  O         29.2890   53.7440  207.2560 O.3   4790  MOL4790    -0.4105
  27369  H         28.7060   53.1240  207.7420 H     4790  MOL4790     0.2052
  27370  H         30.0990   53.9040  207.8060 H     4790  MOL4790     0.2052
  27371  O        174.5680  173.4770  232.5410 O.3   4791  MOL4791    -0.4105
  27372  H        175.4210  173.3700  232.0710 H     4791  MOL4791     0.2052
  27373  H        174.1100  174.2770  232.1750 H     4791  MOL4791     0.2052
  27374  O         82.1870   12.6720  250.3230 O.3   4792  MOL4792    -0.4105
  27375  H         82.8040   11.9520  250.0750 H     4792  MOL4792     0.2052
  27376  H         81.4090   12.2670  250.7860 H     4792  MOL4792     0.2052
  27377  O        111.6830  182.9810  291.4200 O.3   4793  MOL4793    -0.4105
  27378  H        111.0810  183.3600  290.7460 H     4793  MOL4793     0.2052
  27379  H        111.3820  182.0570  291.6210 H     4793  MOL4793     0.2052
  27380  O         44.5220  158.8890  148.3600 O.3   4794  MOL4794    -0.4105
  27381  H         43.8050  158.5000  147.8160 H     4794  MOL4794     0.2052
  27382  H         44.3010  158.7430  149.3160 H     4794  MOL4794     0.2052
  27383  O        175.4850  183.2290  193.9260 O.3   4795  MOL4795    -0.4105
  27384  H        175.0340  182.3620  194.0010 H     4795  MOL4795     0.2052
  27385  H        176.4650  183.0700  193.9350 H     4795  MOL4795     0.2052
  27386  O        102.1860    4.2930   71.2000 O.3   4796  MOL4796    -0.4105
  27387  H        101.4110    4.0950   70.6350 H     4796  MOL4796     0.2052
  27388  H        102.0480    5.1830   71.6160 H     4796  MOL4796     0.2052
  27389  O         63.6720  198.6610  223.4740 O.3   4797  MOL4797    -0.4105
  27390  H         64.4950  198.9740  223.0440 H     4797  MOL4797     0.2052
  27391  H         62.9490  199.3100  223.2700 H     4797  MOL4797     0.2052
  27392  O         78.8840  134.5300   74.9190 O.3   4798  MOL4798    -0.4105
  27393  H         78.2960  134.7830   75.6620 H     4798  MOL4798     0.2052
  27394  H         78.3170  134.2290   74.1630 H     4798  MOL4798     0.2052
  27395  O         88.7560  104.5960  169.9530 O.3   4799  MOL4799    -0.4105
  27396  H         88.5480  103.9590  170.6680 H     4799  MOL4799     0.2052
  27397  H         88.1930  104.3740  169.1670 H     4799  MOL4799     0.2052
  27398  O        190.9710  156.0090   94.8660 O.3   4800  MOL4800    -0.4105
  27399  H        190.2300  155.4460   94.5570 H     4800  MOL4800     0.2052
  27400  H        190.7290  156.9570   94.7030 H     4800  MOL4800     0.2052
  27401  O        106.1910  156.1760   56.1300 O.3   4801  MOL4801    -0.4105
  27402  H        106.0740  155.8280   55.2210 H     4801  MOL4801     0.2052
  27403  H        106.8180  155.5780   56.6130 H     4801  MOL4801     0.2052
  27404  O        114.2110  173.3880  129.8840 O.3   4802  MOL4802    -0.4105
  27405  H        114.4630  173.0700  128.9920 H     4802  MOL4802     0.2052
  27406  H        113.5720  172.7370  130.2760 H     4802  MOL4802     0.2052
  27407  O        137.1690  183.6160  141.4340 O.3   4803  MOL4803    -0.4105
  27408  H        138.1130  183.8260  141.5930 H     4803  MOL4803     0.2052
  27409  H        136.6240  184.1250  142.0880 H     4803  MOL4803     0.2052
  27410  O         43.3000   25.3640   83.9810 O.3   4804  MOL4804    -0.4105
  27411  H         42.3800   25.0250   83.9780 H     4804  MOL4804     0.2052
  27412  H         43.8990   24.6360   83.6710 H     4804  MOL4804     0.2052
  27413  O        131.1230   11.2200  247.4510 O.3   4805  MOL4805    -0.4105
  27414  H        130.5070   10.4620  247.3710 H     4805  MOL4805     0.2052
  27415  H        130.5850   12.0450  247.5740 H     4805  MOL4805     0.2052
  27416  O         15.9480    9.5180  126.4390 O.3   4806  MOL4806    -0.4105
  27417  H         16.6120   10.2130  126.6320 H     4806  MOL4806     0.2052
  27418  H         15.0590    9.8480  126.7310 H     4806  MOL4806     0.2052
  27419  O        142.4340   25.0680   46.9820 O.3   4807  MOL4807    -0.4105
  27420  H        141.5450   24.6600   47.0390 H     4807  MOL4807     0.2052
  27421  H        142.3230   26.0540   46.9670 H     4807  MOL4807     0.2052
  27422  O        195.2470  163.6240  296.0430 O.3   4808  MOL4808    -0.4105
  27423  H        196.1750  163.9380  296.0440 H     4808  MOL4808     0.2052
  27424  H        194.6510  164.4130  295.9590 H     4808  MOL4808     0.2052
  27425  O        174.6680   27.4350  179.8370 O.3   4809  MOL4809    -0.4105
  27426  H        174.5370   28.4060  179.8650 H     4809  MOL4809     0.2052
  27427  H        175.4170   27.2400  179.2160 H     4809  MOL4809     0.2052
  27428  O        114.6980  145.7940  224.6800 O.3   4810  MOL4810    -0.4105
  27429  H        113.9650  146.2820  225.1100 H     4810  MOL4810     0.2052
  27430  H        114.4910  144.8250  224.7200 H     4810  MOL4810     0.2052
  27431  O        170.1010   46.2790  268.1030 O.3   4811  MOL4811    -0.4105
  27432  H        169.4880   45.5140  268.0900 H     4811  MOL4811     0.2052
  27433  H        171.0290   45.9320  268.1410 H     4811  MOL4811     0.2052
  27434  O          7.4880  133.0540    1.9750 O.3   4812  MOL4812    -0.4105
  27435  H          8.2240  132.4170    1.8590 H     4812  MOL4812     0.2052
  27436  H          7.8710  133.9200    2.2730 H     4812  MOL4812     0.2052
  27437  O         73.2860   74.8480   72.2960 O.3   4813  MOL4813    -0.4105
  27438  H         72.6780   74.5120   72.9870 H     4813  MOL4813     0.2052
  27439  H         72.9890   74.4910   71.4200 H     4813  MOL4813     0.2052
  27440  O         21.8620    8.3720  201.9200 O.3   4814  MOL4814    -0.4105
  27441  H         21.1320    8.7130  201.3620 H     4814  MOL4814     0.2052
  27442  H         22.4700    7.8390  201.3440 H     4814  MOL4814     0.2052
  27443  O         33.1660   19.7620  260.3620 O.3   4815  MOL4815    -0.4105
  27444  H         32.2710   20.1620  260.3530 H     4815  MOL4815     0.2052
  27445  H         33.0640   18.7780  260.4480 H     4815  MOL4815     0.2052
  27446  O         44.4840  152.1500   63.7350 O.3   4816  MOL4816    -0.4105
  27447  H         43.7810  151.7650   64.2980 H     4816  MOL4816     0.2052
  27448  H         45.3320  151.6720   63.9270 H     4816  MOL4816     0.2052
  27449  O         38.4830  186.8620   48.1120 O.3   4817  MOL4817    -0.4105
  27450  H         38.6980  187.7540   47.7660 H     4817  MOL4817     0.2052
  27451  H         39.0610  186.2020   47.6490 H     4817  MOL4817     0.2052
  27452  O         56.6240  103.4790   70.0560 O.3   4818  MOL4818    -0.4105
  27453  H         56.3200  104.4020   70.1820 H     4818  MOL4818     0.2052
  27454  H         57.5740  103.5020   69.7690 H     4818  MOL4818     0.2052
  27455  O        166.4940  191.6510  264.9350 O.3   4819  MOL4819    -0.4105
  27456  H        167.3060  191.3290  265.3800 H     4819  MOL4819     0.2052
  27457  H        165.8990  190.8730  264.7750 H     4819  MOL4819     0.2052
  27458  O         57.5110   56.0740   55.1640 O.3   4820  MOL4820    -0.4105
  27459  H         57.9440   55.1960   55.2200 H     4820  MOL4820     0.2052
  27460  H         56.5550   55.9340   54.9370 H     4820  MOL4820     0.2052
  27461  O        176.2290  101.7350  136.2560 O.3   4821  MOL4821    -0.4105
  27462  H        176.5670  102.6510  136.1650 H     4821  MOL4821     0.2052
  27463  H        176.9460  101.1790  136.6570 H     4821  MOL4821     0.2052
  27464  O        135.7230  145.0630   40.8900 O.3   4822  MOL4822    -0.4105
  27465  H        135.7460  146.0240   41.0820 H     4822  MOL4822     0.2052
  27466  H        135.6640  144.5760   41.7530 H     4822  MOL4822     0.2052
  27467  O         96.4020   50.1330   18.7270 O.3   4823  MOL4823    -0.4105
  27468  H         96.0120   49.4800   19.3450 H     4823  MOL4823     0.2052
  27469  H         97.2180   49.7330   18.3280 H     4823  MOL4823     0.2052
  27470  O         23.8610   90.4220  215.3940 O.3   4824  MOL4824    -0.4105
  27471  H         24.6280   90.3830  214.7850 H     4824  MOL4824     0.2052
  27472  H         24.0310   91.1350  216.0630 H     4824  MOL4824     0.2052
  27473  O        152.6220   65.5370  106.9690 O.3   4825  MOL4825    -0.4105
  27474  H        152.8130   65.5220  106.0080 H     4825  MOL4825     0.2052
  27475  H        152.7240   66.4700  107.2910 H     4825  MOL4825     0.2052
  27476  O         48.9860    1.3880  187.0740 O.3   4826  MOL4826    -0.4105
  27477  H         48.3850    1.9690  186.5620 H     4826  MOL4826     0.2052
  27478  H         49.8120    1.2500  186.5430 H     4826  MOL4826     0.2052
  27479  O         12.2100  147.6910  110.5220 O.3   4827  MOL4827    -0.4105
  27480  H         12.7660  148.4630  110.2900 H     4827  MOL4827     0.2052
  27481  H         11.2580  147.9630  110.4530 H     4827  MOL4827     0.2052
  27482  O        121.3730  108.7690   64.3710 O.3   4828  MOL4828    -0.4105
  27483  H        121.5270  107.8010   64.3830 H     4828  MOL4828     0.2052
  27484  H        122.2280  109.2220   64.5890 H     4828  MOL4828     0.2052
  27485  O         53.8900    2.2650  248.7520 O.3   4829  MOL4829    -0.4105
  27486  H         54.1280    1.6960  247.9910 H     4829  MOL4829     0.2052
  27487  H         53.0210    2.7010  248.5540 H     4829  MOL4829     0.2052
  27488  O        179.8660  186.5820   89.8680 O.3   4830  MOL4830    -0.4105
  27489  H        179.0700  186.3550   89.3430 H     4830  MOL4830     0.2052
  27490  H        180.6670  186.2880   89.3600 H     4830  MOL4830     0.2052
  27491  O        110.1930  185.1400  123.6910 O.3   4831  MOL4831    -0.4105
  27492  H        109.9720  185.2980  122.7500 H     4831  MOL4831     0.2052
  27493  H        110.6410  184.2580  123.7610 H     4831  MOL4831     0.2052
  27494  O         31.8090    3.9090  103.2800 O.3   4832  MOL4832    -0.4105
  27495  H         31.2640    4.5310  103.8060 H     4832  MOL4832     0.2052
  27496  H         31.2090    3.2190  102.8960 H     4832  MOL4832     0.2052
  27497  O         55.2030   13.8460  246.6710 O.3   4833  MOL4833    -0.4105
  27498  H         55.1240   14.6270  246.0840 H     4833  MOL4833     0.2052
  27499  H         54.4990   13.1940  246.4170 H     4833  MOL4833     0.2052
  27500  O          2.9730  162.2460  205.7910 O.3   4834  MOL4834    -0.4105
  27501  H          3.4440  161.3870  205.8050 H     4834  MOL4834     0.2052
  27502  H          2.0570  162.0920  205.4420 H     4834  MOL4834     0.2052
  27503  O        133.3960   43.9790  117.6710 O.3   4835  MOL4835    -0.4105
  27504  H        132.9670   43.1050  117.7850 H     4835  MOL4835     0.2052
  27505  H        134.3410   43.8290  117.4070 H     4835  MOL4835     0.2052
  27506  O         12.3880   24.3200  236.7820 O.3   4836  MOL4836    -0.4105
  27507  H         12.4970   23.6080  236.1170 H     4836  MOL4836     0.2052
  27508  H         12.6300   25.1820  236.3550 H     4836  MOL4836     0.2052
  27509  O         78.6320  166.8010  166.2480 O.3   4837  MOL4837    -0.4105
  27510  H         79.1800  167.4120  166.7840 H     4837  MOL4837     0.2052
  27511  H         79.1940  166.0240  165.9920 H     4837  MOL4837     0.2052
  27512  O         55.6110  186.9590  158.9250 O.3   4838  MOL4838    -0.4105
  27513  H         54.7550  187.4100  159.0840 H     4838  MOL4838     0.2052
  27514  H         55.9030  186.5390  159.7750 H     4838  MOL4838     0.2052
  27515  O         22.3120  174.7860   63.2540 O.3   4839  MOL4839    -0.4105
  27516  H         22.0740  175.7260   63.3950 H     4839  MOL4839     0.2052
  27517  H         23.3000  174.7250   63.1790 H     4839  MOL4839     0.2052
  27518  O         56.4100   93.7760  244.8470 O.3   4840  MOL4840    -0.4105
  27519  H         57.2120   93.2790  245.1140 H     4840  MOL4840     0.2052
  27520  H         56.4350   94.6650  245.2880 H     4840  MOL4840     0.2052
  27521  O         47.4280  193.7400  145.2280 O.3   4841  MOL4841    -0.4105
  27522  H         47.0080  192.9800  144.7750 H     4841  MOL4841     0.2052
  27523  H         48.1470  194.0930  144.6410 H     4841  MOL4841     0.2052
  27524  O         30.8840  179.4920  100.7010 O.3   4842  MOL4842    -0.4105
  27525  H         31.2070  179.3060   99.7950 H     4842  MOL4842     0.2052
  27526  H         29.9020  179.3530  100.7150 H     4842  MOL4842     0.2052
  27527  O         45.5980  109.4200  245.0100 O.3   4843  MOL4843    -0.4105
  27528  H         45.7540  109.7030  244.0850 H     4843  MOL4843     0.2052
  27529  H         46.3850  108.8950  245.3110 H     4843  MOL4843     0.2052
  27530  O        135.1220   37.3580  262.1620 O.3   4844  MOL4844    -0.4105
  27531  H        135.9060   37.7190  261.6990 H     4844  MOL4844     0.2052
  27532  H        134.7180   36.6570  261.5880 H     4844  MOL4844     0.2052
  27533  O         29.9190  182.9220  109.2820 O.3   4845  MOL4845    -0.4105
  27534  H         29.7200  183.4880  110.0570 H     4845  MOL4845     0.2052
  27535  H         29.0600  182.6530  108.8650 H     4845  MOL4845     0.2052
  27536  O        193.4800   63.0740  230.5610 O.3   4846  MOL4846    -0.4105
  27537  H        192.7430   62.9710  231.1990 H     4846  MOL4846     0.2052
  27538  H        194.2070   63.5800  231.0070 H     4846  MOL4846     0.2052
  27539  O         81.8400   16.9650  293.7160 O.3   4847  MOL4847    -0.4105
  27540  H         81.7780   16.6620  294.6460 H     4847  MOL4847     0.2052
  27541  H         81.8600   16.1650  293.1300 H     4847  MOL4847     0.2052
  27542  O        147.6500   65.4860  283.7360 O.3   4848  MOL4848    -0.4105
  27543  H        146.8780   64.9070  283.5620 H     4848  MOL4848     0.2052
  27544  H        148.3990   64.9170  284.0530 H     4848  MOL4848     0.2052
  27545  O         46.2890  183.5800   19.2420 O.3   4849  MOL4849    -0.4105
  27546  H         45.6670  183.0040   19.7340 H     4849  MOL4849     0.2052
  27547  H         46.7830  183.0170   18.5910 H     4849  MOL4849     0.2052
  27548  O         85.0860    1.4250  118.7430 O.3   4850  MOL4850    -0.4105
  27549  H         85.8740    0.8760  118.9410 H     4850  MOL4850     0.2052
  27550  H         84.2770    0.8680  118.8840 H     4850  MOL4850     0.2052
  27551  O        105.1530  172.2720  267.7920 O.3   4851  MOL4851    -0.4105
  27552  H        105.8210  172.9880  267.8140 H     4851  MOL4851     0.2052
  27553  H        105.6260  171.4030  267.8690 H     4851  MOL4851     0.2052
  27554  O          6.1620  111.3730    1.7670 O.3   4852  MOL4852    -0.4105
  27555  H          6.2520  111.5310    0.8040 H     4852  MOL4852     0.2052
  27556  H          7.0700  111.2410    2.1460 H     4852  MOL4852     0.2052
  27557  O         43.2040   28.4660   39.0450 O.3   4853  MOL4853    -0.4105
  27558  H         42.3370   28.4420   39.5010 H     4853  MOL4853     0.2052
  27559  H         43.5670   27.5420   39.0190 H     4853  MOL4853     0.2052
  27560  O        155.1920  138.8940    1.0640 O.3   4854  MOL4854    -0.4105
  27561  H        154.8620  139.6820    0.5840 H     4854  MOL4854     0.2052
  27562  H        155.7830  139.2020    1.7990 H     4854  MOL4854     0.2052
  27563  O        153.4720  153.2430  236.9310 O.3   4855  MOL4855    -0.4105
  27564  H        154.4360  153.0720  236.9750 H     4855  MOL4855     0.2052
  27565  H        153.0070  152.3730  236.8280 H     4855  MOL4855     0.2052
  27566  O        170.5260  113.2700  290.5090 O.3   4856  MOL4856    -0.4105
  27567  H        170.6360  113.5800  289.5860 H     4856  MOL4856     0.2052
  27568  H        170.7930  114.0060  291.1180 H     4856  MOL4856     0.2052
  27569  O        120.1970    6.8710  269.6490 O.3   4857  MOL4857    -0.4105
  27570  H        120.2980    6.7460  268.6820 H     4857  MOL4857     0.2052
  27571  H        119.2440    7.0680  269.8390 H     4857  MOL4857     0.2052
  27572  O        124.2310  192.7480  145.8110 O.3   4858  MOL4858    -0.4105
  27573  H        125.1700  192.4650  145.8300 H     4858  MOL4858     0.2052
  27574  H        123.7240  192.1840  146.4510 H     4858  MOL4858     0.2052
  27575  O        127.8850   64.5910  233.3890 O.3   4859  MOL4859    -0.4105
  27576  H        128.0220   63.6790  233.0560 H     4859  MOL4859     0.2052
  27577  H        127.0370   64.9360  233.0080 H     4859  MOL4859     0.2052
  27578  O        118.8520  152.5350   93.7290 O.3   4860  MOL4860    -0.4105
  27579  H        119.6930  152.0680   93.9170 H     4860  MOL4860     0.2052
  27580  H        118.1650  151.8570   93.4990 H     4860  MOL4860     0.2052
  27581  O         72.9830  135.2080  285.0770 O.3   4861  MOL4861    -0.4105
  27582  H         72.5820  134.5050  284.5240 H     4861  MOL4861     0.2052
  27583  H         73.4100  135.8710  284.4750 H     4861  MOL4861     0.2052
  27584  O         96.8120   38.4550  241.4380 O.3   4862  MOL4862    -0.4105
  27585  H         96.2390   37.9350  242.0400 H     4862  MOL4862     0.2052
  27586  H         97.2580   39.1640  241.9700 H     4862  MOL4862     0.2052
  27587  O         84.1120   72.6690  193.0380 O.3   4863  MOL4863    -0.4105
  27588  H         83.6280   72.1900  193.7430 H     4863  MOL4863     0.2052
  27589  H         83.9560   73.6410  193.1600 H     4863  MOL4863     0.2052
  27590  O        194.9470   83.4180  185.9680 O.3   4864  MOL4864    -0.4105
  27591  H        195.5980   84.1260  185.7790 H     4864  MOL4864     0.2052
  27592  H        194.2930   83.3910  185.2230 H     4864  MOL4864     0.2052
  27593  O         83.8040  199.7230  179.8700 O.3   4865  MOL4865    -0.4105
  27594  H         83.0700  199.9190  179.2510 H     4865  MOL4865     0.2052
  27595  H         84.5640  199.3610  179.3460 H     4865  MOL4865     0.2052
  27596  O        138.6570   99.9190  197.1300 O.3   4866  MOL4866    -0.4105
  27597  H        138.1340   99.5370  197.8650 H     4866  MOL4866     0.2052
  27598  H        139.6200   99.8020  197.3410 H     4866  MOL4866     0.2052
  27599  O        123.2200   36.2550   58.9040 O.3   4867  MOL4867    -0.4105
  27600  H        123.6770   37.1120   59.0360 H     4867  MOL4867     0.2052
  27601  H        123.8460   35.6360   58.4460 H     4867  MOL4867     0.2052
  27602  O        153.8110   42.6180  174.5360 O.3   4868  MOL4868    -0.4105
  27603  H        154.7330   42.2950  174.6060 H     4868  MOL4868     0.2052
  27604  H        153.8320   43.6090  174.4860 H     4868  MOL4868     0.2052
  27605  O         49.5850   41.8050  124.4710 O.3   4869  MOL4869    -0.4105
  27606  H         49.7650   42.4840  123.7870 H     4869  MOL4869     0.2052
  27607  H         49.3360   40.9610  124.0120 H     4869  MOL4869     0.2052
  27608  O        170.0070  108.6810  194.8530 O.3   4870  MOL4870    -0.4105
  27609  H        169.7250  108.3460  195.7300 H     4870  MOL4870     0.2052
  27610  H        170.7790  109.2900  194.9880 H     4870  MOL4870     0.2052
  27611  O         36.2230  133.1190   21.3530 O.3   4871  MOL4871    -0.4105
  27612  H         36.1350  133.9900   21.7930 H     4871  MOL4871     0.2052
  27613  H         35.3280  132.8440   21.0260 H     4871  MOL4871     0.2052
  27614  O         30.6630   48.8950  178.6370 O.3   4872  MOL4872    -0.4105
  27615  H         30.7140   48.0850  178.0880 H     4872  MOL4872     0.2052
  27616  H         31.2820   49.5690  178.2540 H     4872  MOL4872     0.2052
  27617  O         62.6500  101.4270  256.1140 O.3   4873  MOL4873    -0.4105
  27618  H         62.2000  100.5800  255.9150 H     4873  MOL4873     0.2052
  27619  H         62.3550  101.7320  257.0110 H     4873  MOL4873     0.2052
  27620  O         65.3190   35.8250   38.9910 O.3   4874  MOL4874    -0.4105
  27621  H         64.4070   36.1510   38.8430 H     4874  MOL4874     0.2052
  27622  H         65.8330   35.9510   38.1520 H     4874  MOL4874     0.2052
  27623  O        112.0230   30.7910   46.6040 O.3   4875  MOL4875    -0.4105
  27624  H        111.1590   31.0360   46.2130 H     4875  MOL4875     0.2052
  27625  H        112.7310   31.3150   46.1470 H     4875  MOL4875     0.2052
  27626  O         61.8260   26.2440  160.4250 O.3   4876  MOL4876    -0.4105
  27627  H         61.3430   25.3950  160.5080 H     4876  MOL4876     0.2052
  27628  H         62.7840   26.0760  160.6190 H     4876  MOL4876     0.2052
  27629  O         99.5190  124.0910  241.1450 O.3   4877  MOL4877    -0.4105
  27630  H        100.0000  124.5990  241.8320 H     4877  MOL4877     0.2052
  27631  H         99.8660  123.1610  241.1470 H     4877  MOL4877     0.2052
  27632  O        115.4740  157.4370   53.0170 O.3   4878  MOL4878    -0.4105
  27633  H        115.9890  158.2500   53.2030 H     4878  MOL4878     0.2052
  27634  H        116.0570  156.8080   52.5190 H     4878  MOL4878     0.2052
  27635  O         44.7220  170.1350  223.4760 O.3   4879  MOL4879    -0.4105
  27636  H         43.7660  170.3440  223.5170 H     4879  MOL4879     0.2052
  27637  H         45.2110  170.9670  223.2430 H     4879  MOL4879     0.2052
  27638  O        149.0520  193.0450  226.8320 O.3   4880  MOL4880    -0.4105
  27639  H        148.1160  193.2450  226.6230 H     4880  MOL4880     0.2052
  27640  H        149.2050  193.2470  227.7920 H     4880  MOL4880     0.2052
  27641  O         35.2940  179.6770   76.4250 O.3   4881  MOL4881    -0.4105
  27642  H         35.5100  180.5180   76.8800 H     4881  MOL4881     0.2052
  27643  H         35.0890  178.9940   77.1150 H     4881  MOL4881     0.2052
  27644  O        196.0120  111.4800   38.0090 O.3   4882  MOL4882    -0.4105
  27645  H        196.5670  110.6980   37.8080 H     4882  MOL4882     0.2052
  27646  H        196.5320  112.0880   38.5960 H     4882  MOL4882     0.2052
  27647  O        193.7030   60.1770  164.1770 O.3   4883  MOL4883    -0.4105
  27648  H        193.2670   59.4270  163.7210 H     4883  MOL4883     0.2052
  27649  H        194.2770   60.6490  163.5190 H     4883  MOL4883     0.2052
  27650  O         92.6410  179.6470  221.0440 O.3   4884  MOL4884    -0.4105
  27651  H         93.4690  179.1520  221.2190 H     4884  MOL4884     0.2052
  27652  H         92.1770  179.7910  221.9090 H     4884  MOL4884     0.2052
  27653  O         64.4230   11.0070   47.1840 O.3   4885  MOL4885    -0.4105
  27654  H         64.0710   10.8020   48.0750 H     4885  MOL4885     0.2052
  27655  H         63.9960   10.3920   46.5320 H     4885  MOL4885     0.2052
  27656  O          5.3500  173.0060    2.7470 O.3   4886  MOL4886    -0.4105
  27657  H          5.5530  173.9640    2.7700 H     4886  MOL4886     0.2052
  27658  H          6.1160  172.5360    2.3270 H     4886  MOL4886     0.2052
  27659  O         22.3050  101.7590    3.3570 O.3   4887  MOL4887    -0.4105
  27660  H         22.9780  102.4480    3.5390 H     4887  MOL4887     0.2052
  27661  H         21.4070  102.1740    3.4360 H     4887  MOL4887     0.2052
  27662  O         20.7220   56.0620  292.6170 O.3   4888  MOL4888    -0.4105
  27663  H         21.6880   56.2270  292.6270 H     4888  MOL4888     0.2052
  27664  H         20.3000   56.6500  293.2960 H     4888  MOL4888     0.2052
  27665  O         11.7170  151.3760  229.4760 O.3   4889  MOL4889    -0.4105
  27666  H         11.0140  151.4670  230.1530 H     4889  MOL4889     0.2052
  27667  H         11.6460  150.4720  229.0740 H     4889  MOL4889     0.2052
  27668  O        154.7330  166.9600  216.9440 O.3   4890  MOL4890    -0.4105
  27669  H        154.1210  166.9780  217.7080 H     4890  MOL4890     0.2052
  27670  H        155.0850  166.0370  216.8490 H     4890  MOL4890     0.2052
  27671  O         47.1760  102.6480  171.1860 O.3   4891  MOL4891    -0.4105
  27672  H         47.9430  102.1290  170.8660 H     4891  MOL4891     0.2052
  27673  H         46.3790  102.3830  170.6580 H     4891  MOL4891     0.2052
  27674  O        149.7730   91.8350  239.3960 O.3   4892  MOL4892    -0.4105
  27675  H        149.1600   92.1850  240.0750 H     4892  MOL4892     0.2052
  27676  H        150.6930   91.8570  239.7670 H     4892  MOL4892     0.2052
  27677  O        139.4070  194.0210    2.9140 O.3   4893  MOL4893    -0.4105
  27678  H        139.1680  194.9610    2.7680 H     4893  MOL4893     0.2052
  27679  H        138.8780  193.6830    3.6830 H     4893  MOL4893     0.2052
  27680  O        172.6260   59.8640  253.1660 O.3   4894  MOL4894    -0.4105
  27681  H        173.4270   59.4530  253.5540 H     4894  MOL4894     0.2052
  27682  H        172.1140   59.1580  252.6920 H     4894  MOL4894     0.2052
  27683  O         63.2640  113.2490   59.1010 O.3   4895  MOL4895    -0.4105
  27684  H         62.8470  113.3180   58.2170 H     4895  MOL4895     0.2052
  27685  H         63.0780  114.0880   59.5980 H     4895  MOL4895     0.2052
  27686  O        153.9320  180.8910   82.2890 O.3   4896  MOL4896    -0.4105
  27687  H        153.4090  180.0950   82.5190 H     4896  MOL4896     0.2052
  27688  H        153.3680  181.6910   82.4520 H     4896  MOL4896     0.2052
  27689  O         77.6220   15.6640   32.7880 O.3   4897  MOL4897    -0.4105
  27690  H         77.2620   15.8210   33.6860 H     4897  MOL4897     0.2052
  27691  H         77.2760   14.7920   32.4630 H     4897  MOL4897     0.2052
  27692  O        192.1780  175.6080    4.9150 O.3   4898  MOL4898    -0.4105
  27693  H        193.1000  175.3240    5.0890 H     4898  MOL4898     0.2052
  27694  H        191.8610  175.1490    4.0940 H     4898  MOL4898     0.2052
  27695  O        107.5790  199.2320   30.5220 O.3   4899  MOL4899    -0.4105
  27696  H        106.9720  199.4620   29.7870 H     4899  MOL4899     0.2052
  27697  H        108.5030  199.4620   30.2450 H     4899  MOL4899     0.2052
  27698  O         82.5840   11.7450  193.4050 O.3   4900  MOL4900    -0.4105
  27699  H         82.7500   10.8420  193.7480 H     4900  MOL4900     0.2052
  27700  H         83.4260   12.0850  193.0060 H     4900  MOL4900     0.2052
  27701  O        174.8410  105.7420  117.1810 O.3   4901  MOL4901    -0.4105
  27702  H        175.4960  105.0150  117.1230 H     4901  MOL4901     0.2052
  27703  H        175.2940  106.5890  116.9340 H     4901  MOL4901     0.2052
  27704  O        140.0240  193.9110  131.9760 O.3   4902  MOL4902    -0.4105
  27705  H        139.4420  194.2700  131.2730 H     4902  MOL4902     0.2052
  27706  H        139.7170  192.9930  132.1940 H     4902  MOL4902     0.2052
  27707  O         48.7610  183.1170  172.2300 O.3   4903  MOL4903    -0.4105
  27708  H         48.0340  182.5350  172.5360 H     4903  MOL4903     0.2052
  27709  H         49.6170  182.7490  172.5710 H     4903  MOL4903     0.2052
  27710  O        131.7670  128.8380  241.6750 O.3   4904  MOL4904    -0.4105
  27711  H        131.7830  127.8950  241.9420 H     4904  MOL4904     0.2052
  27712  H        130.9170  129.2370  241.9970 H     4904  MOL4904     0.2052
  27713  O        187.0030  167.3090  278.1700 O.3   4905  MOL4905    -0.4105
  27714  H        186.7660  168.2600  278.1770 H     4905  MOL4905     0.2052
  27715  H        186.1660  166.7800  278.0940 H     4905  MOL4905     0.2052
  27716  O        102.4520  137.2920   14.2890 O.3   4906  MOL4906    -0.4105
  27717  H        103.0930  137.4530   15.0130 H     4906  MOL4906     0.2052
  27718  H        102.9530  136.9580   13.5000 H     4906  MOL4906     0.2052
  27719  O         69.6280   91.0200   29.5900 O.3   4907  MOL4907    -0.4105
  27720  H         69.1740   91.3610   30.3880 H     4907  MOL4907     0.2052
  27721  H         69.3830   90.0650   29.4770 H     4907  MOL4907     0.2052
  27722  O        140.4020  170.5780   85.3380 O.3   4908  MOL4908    -0.4105
  27723  H        139.6240  169.9920   85.2270 H     4908  MOL4908     0.2052
  27724  H        140.4690  171.1610   84.5380 H     4908  MOL4908     0.2052
  27725  O         20.4390    7.8860    4.0300 O.3   4909  MOL4909    -0.4105
  27726  H         20.6020    6.9190    4.0460 H     4909  MOL4909     0.2052
  27727  H         21.3090    8.3440    3.8960 H     4909  MOL4909     0.2052
  27728  O         46.9900   96.3710  296.1860 O.3   4910  MOL4910    -0.4105
  27729  H         47.3120   95.8580  296.9560 H     4910  MOL4910     0.2052
  27730  H         47.5680   97.1710  296.0820 H     4910  MOL4910     0.2052
  27731  O         47.2800  155.8580  216.8720 O.3   4911  MOL4911    -0.4105
  27732  H         46.8250  155.6760  216.0230 H     4911  MOL4911     0.2052
  27733  H         47.0630  155.1260  217.5050 H     4911  MOL4911     0.2052
  27734  O         36.7320   78.0300  211.4710 O.3   4912  MOL4912    -0.4105
  27735  H         36.1320   78.2380  212.2180 H     4912  MOL4912     0.2052
  27736  H         36.3180   78.3720  210.6360 H     4912  MOL4912     0.2052
  27737  O         26.5950  171.0730  144.9370 O.3   4913  MOL4913    -0.4105
  27738  H         26.8500  172.0190  144.9410 H     4913  MOL4913     0.2052
  27739  H         27.4250  170.5280  144.9390 H     4913  MOL4913     0.2052
  27740  O        167.5580  104.7600  183.0050 O.3   4914  MOL4914    -0.4105
  27741  H        166.7070  104.3160  183.1990 H     4914  MOL4914     0.2052
  27742  H        168.2860  104.0930  183.1020 H     4914  MOL4914     0.2052
  27743  O        115.7350   67.4650  256.4650 O.3   4915  MOL4915    -0.4105
  27744  H        114.9430   67.6540  255.9210 H     4915  MOL4915     0.2052
  27745  H        116.2330   68.3140  256.5930 H     4915  MOL4915     0.2052
  27746  O         30.3040   15.4620   44.3220 O.3   4916  MOL4916    -0.4105
  27747  H         31.0350   16.0950   44.4820 H     4916  MOL4916     0.2052
  27748  H         30.6890   14.5490   44.2730 H     4916  MOL4916     0.2052
  27749  O         42.3290  174.2980  255.6320 O.3   4917  MOL4917    -0.4105
  27750  H         42.2670  174.1200  256.5940 H     4917  MOL4917     0.2052
  27751  H         42.8930  173.5920  255.2210 H     4917  MOL4917     0.2052
  27752  O         80.1640  155.5020  211.6940 O.3   4918  MOL4918    -0.4105
  27753  H         79.9590  154.5700  211.4700 H     4918  MOL4918     0.2052
  27754  H         79.9780  155.6370  212.6600 H     4918  MOL4918     0.2052
  27755  O        112.9600   87.1420   36.0820 O.3   4919  MOL4919    -0.4105
  27756  H        113.4510   87.6530   36.7600 H     4919  MOL4919     0.2052
  27757  H        113.6070   86.8380   35.3940 H     4919  MOL4919     0.2052
  27758  O        121.1500  113.5300  240.9500 O.3   4920  MOL4920    -0.4105
  27759  H        120.9750  113.6180  241.9100 H     4920  MOL4920     0.2052
  27760  H        122.0880  113.2290  240.8310 H     4920  MOL4920     0.2052
  27761  O          2.2910  108.5790  118.1540 O.3   4921  MOL4921    -0.4105
  27762  H          2.1190  108.1150  117.3080 H     4921  MOL4921     0.2052
  27763  H          1.4460  108.6010  118.6740 H     4921  MOL4921     0.2052
  27764  O         32.3220  150.9430  164.9080 O.3   4922  MOL4922    -0.4105
  27765  H         32.2430  151.7610  164.3740 H     4922  MOL4922     0.2052
  27766  H         31.7570  150.2430  164.4880 H     4922  MOL4922     0.2052
  27767  O        121.3890  183.5360  283.0490 O.3   4923  MOL4923    -0.4105
  27768  H        121.4370  184.3540  283.5860 H     4923  MOL4923     0.2052
  27769  H        120.4360  183.2680  282.9760 H     4923  MOL4923     0.2052
  27770  O        102.6650  156.3860  147.7810 O.3   4924  MOL4924    -0.4105
  27771  H        102.8570  157.3370  147.9200 H     4924  MOL4924     0.2052
  27772  H        103.5200  155.9210  147.5890 H     4924  MOL4924     0.2052
  27773  O        187.4560  194.8070  228.8120 O.3   4925  MOL4925    -0.4105
  27774  H        187.3240  195.3650  228.0180 H     4925  MOL4925     0.2052
  27775  H        188.1620  194.1400  228.6090 H     4925  MOL4925     0.2052
  27776  O        182.5230   94.5750  271.2180 O.3   4926  MOL4926    -0.4105
  27777  H        181.5580   94.7280  271.1350 H     4926  MOL4926     0.2052
  27778  H        182.9950   95.3220  270.7660 H     4926  MOL4926     0.2052
  27779  O        185.2930   63.3470  201.0420 O.3   4927  MOL4927    -0.4105
  27780  H        184.7920   64.1060  200.6770 H     4927  MOL4927     0.2052
  27781  H        184.6950   62.5550  201.0480 H     4927  MOL4927     0.2052
  27782  O        183.2320  189.5890  298.9160 O.3   4928  MOL4928    -0.4105
  27783  H        182.3930  189.4220  298.4390 H     4928  MOL4928     0.2052
  27784  H        183.3700  190.5710  298.9670 H     4928  MOL4928     0.2052
  27785  O        136.3520  196.0860  283.3770 O.3   4929  MOL4929    -0.4105
  27786  H        136.7360  196.0780  282.4750 H     4929  MOL4929     0.2052
  27787  H        136.7530  196.8430  283.8780 H     4929  MOL4929     0.2052
  27788  O         89.7320  166.7390  233.6110 O.3   4930  MOL4930    -0.4105
  27789  H         90.1100  167.6430  233.5950 H     4930  MOL4930     0.2052
  27790  H         89.0740  166.6910  234.3520 H     4930  MOL4930     0.2052
  27791  O         91.9700  153.9060  135.1180 O.3   4931  MOL4931    -0.4105
  27792  H         91.8880  153.9670  134.1430 H     4931  MOL4931     0.2052
  27793  H         91.0560  153.8840  135.5050 H     4931  MOL4931     0.2052
  27794  O        159.2290   81.0050    7.6300 O.3   4932  MOL4932    -0.4105
  27795  H        159.8420   81.7700    7.6050 H     4932  MOL4932     0.2052
  27796  H        158.3060   81.3510    7.7390 H     4932  MOL4932     0.2052
  27797  O        118.3500  135.2790  246.2620 O.3   4933  MOL4933    -0.4105
  27798  H        119.1460  135.1010  245.7180 H     4933  MOL4933     0.2052
  27799  H        117.6050  135.5190  245.6520 H     4933  MOL4933     0.2052
  27800  O          9.5780  149.2270   74.6400 O.3   4934  MOL4934    -0.4105
  27801  H          9.4740  149.3280   75.6090 H     4934  MOL4934     0.2052
  27802  H         10.5440  149.1210   74.4400 H     4934  MOL4934     0.2052
  27803  O         61.0010    9.3650  133.7690 O.3   4935  MOL4935    -0.4105
  27804  H         60.8160   10.2550  134.1350 H     4935  MOL4935     0.2052
  27805  H         60.4160    8.7110  134.2310 H     4935  MOL4935     0.2052
  27806  O        150.7780   29.7720  200.4970 O.3   4936  MOL4936    -0.4105
  27807  H        149.9710   30.3040  200.6580 H     4936  MOL4936     0.2052
  27808  H        150.7150   29.3800  199.5880 H     4936  MOL4936     0.2052
  27809  O         27.7520  114.8250  158.0170 O.3   4937  MOL4937    -0.4105
  27810  H         27.9570  115.1950  158.9010 H     4937  MOL4937     0.2052
  27811  H         28.2950  114.0050  157.8910 H     4937  MOL4937     0.2052
  27812  O         27.2780  128.1350  129.1180 O.3   4938  MOL4938    -0.4105
  27813  H         27.4910  128.1940  128.1630 H     4938  MOL4938     0.2052
  27814  H         28.1270  128.0110  129.6180 H     4938  MOL4938     0.2052
  27815  O        191.1490  142.5910  136.8230 O.3   4939  MOL4939    -0.4105
  27816  H        191.7110  142.4360  137.6110 H     4939  MOL4939     0.2052
  27817  H        191.2550  141.8180  136.2100 H     4939  MOL4939     0.2052
  27818  O        183.6240    9.2880  251.5670 O.3   4940  MOL4940    -0.4105
  27819  H        184.5000    9.6750  251.7760 H     4940  MOL4940     0.2052
  27820  H        183.0450   10.0090  251.2060 H     4940  MOL4940     0.2052
  27821  O        122.5070   59.0120   62.5690 O.3   4941  MOL4941    -0.4105
  27822  H        121.6100   59.2310   62.8990 H     4941  MOL4941     0.2052
  27823  H        122.4950   58.0770   62.2370 H     4941  MOL4941     0.2052
  27824  O        165.2440  169.7310   76.3710 O.3   4942  MOL4942    -0.4105
  27825  H        165.7430  169.4430   75.5780 H     4942  MOL4942     0.2052
  27826  H        165.8110  170.3640   76.8820 H     4942  MOL4942     0.2052
  27827  O         76.8110   18.2080   75.1960 O.3   4943  MOL4943    -0.4105
  27828  H         77.0950   18.5750   74.3330 H     4943  MOL4943     0.2052
  27829  H         76.1910   18.8560   75.6200 H     4943  MOL4943     0.2052
  27830  O        194.2920   51.7030   23.2930 O.3   4944  MOL4944    -0.4105
  27831  H        194.8740   50.9220   23.4050 H     4944  MOL4944     0.2052
  27832  H        193.4180   51.3920   22.9410 H     4944  MOL4944     0.2052
  27833  O         35.7600   43.1570  231.5140 O.3   4945  MOL4945    -0.4105
  27834  H         36.4660   42.4780  231.4900 H     4945  MOL4945     0.2052
  27835  H         34.8990   42.7170  231.2920 H     4945  MOL4945     0.2052
  27836  O         69.0650  177.9570   56.4140 O.3   4946  MOL4946    -0.4105
  27837  H         69.8930  177.5270   56.1140 H     4946  MOL4946     0.2052
  27838  H         68.4750  177.2590   56.8000 H     4946  MOL4946     0.2052
  27839  O        117.6410   20.1150  152.2020 O.3   4947  MOL4947    -0.4105
  27840  H        118.0920   19.5950  152.9000 H     4947  MOL4947     0.2052
  27841  H        116.9850   20.7170  152.6390 H     4947  MOL4947     0.2052
  27842  O        172.4170   98.2040  219.0180 O.3   4948  MOL4948    -0.4105
  27843  H        172.7070   97.4120  219.5170 H     4948  MOL4948     0.2052
  27844  H        171.4860   98.4170  219.2870 H     4948  MOL4948     0.2052
  27845  O        115.3430   45.6050  202.9430 O.3   4949  MOL4949    -0.4105
  27846  H        114.7470   46.2850  202.5640 H     4949  MOL4949     0.2052
  27847  H        116.0610   45.4200  202.2830 H     4949  MOL4949     0.2052
  27848  O        175.6040   44.3110   87.1350 O.3   4950  MOL4950    -0.4105
  27849  H        176.2720   45.0210   87.0390 H     4950  MOL4950     0.2052
  27850  H        175.9790   43.6100   87.7290 H     4950  MOL4950     0.2052
  27851  O         35.1900  130.6390  172.5340 O.3   4951  MOL4951    -0.4105
  27852  H         35.0420  131.4110  171.9480 H     4951  MOL4951     0.2052
  27853  H         35.8390  130.0330  172.0900 H     4951  MOL4951     0.2052
  27854  O          8.0630   89.2130  249.2630 O.3   4952  MOL4952    -0.4105
  27855  H          7.8990   88.7080  250.0860 H     4952  MOL4952     0.2052
  27856  H          8.0510   88.5780  248.5010 H     4952  MOL4952     0.2052
  27857  O        161.4290   82.4550   90.4090 O.3   4953  MOL4953    -0.4105
  27858  H        161.2930   82.1130   89.5010 H     4953  MOL4953     0.2052
  27859  H        161.2680   83.4350   90.3980 H     4953  MOL4953     0.2052
  27860  O         58.1240  128.8530   10.4740 O.3   4954  MOL4954    -0.4105
  27861  H         57.9140  129.1720    9.5720 H     4954  MOL4954     0.2052
  27862  H         57.3060  128.4430   10.8570 H     4954  MOL4954     0.2052
  27863  O        118.8360  139.4030  246.6220 O.3   4955  MOL4955    -0.4105
  27864  H        117.8640  139.4970  246.6960 H     4955  MOL4955     0.2052
  27865  H        119.0510  139.1120  245.6980 H     4955  MOL4955     0.2052
  27866  O        158.9180  120.9630  191.3810 O.3   4956  MOL4956    -0.4105
  27867  H        159.0340  121.1750  192.3310 H     4956  MOL4956     0.2052
  27868  H        158.2100  121.5540  191.0150 H     4956  MOL4956     0.2052
  27869  O         29.0760   87.5380  196.2490 O.3   4957  MOL4957    -0.4105
  27870  H         28.3020   87.1570  196.7140 H     4957  MOL4957     0.2052
  27871  H         29.2860   86.9600  195.4700 H     4957  MOL4957     0.2052
  27872  O         16.5710  114.7840   16.4170 O.3   4958  MOL4958    -0.4105
  27873  H         15.9190  114.4170   17.0510 H     4958  MOL4958     0.2052
  27874  H         16.5920  115.7690   16.5290 H     4958  MOL4958     0.2052
  27875  O        155.5660   10.3940  135.2530 O.3   4959  MOL4959    -0.4105
  27876  H        155.7270    9.5860  135.7830 H     4959  MOL4959     0.2052
  27877  H        154.5850   10.5340  135.1910 H     4959  MOL4959     0.2052
  27878  O         10.5550  176.2360   72.3730 O.3   4960  MOL4960    -0.4105
  27879  H         10.0730  176.9420   72.8510 H     4960  MOL4960     0.2052
  27880  H          9.9210  175.7920   71.7520 H     4960  MOL4960     0.2052
  27881  O        141.9860   45.4950   66.1960 O.3   4961  MOL4961    -0.4105
  27882  H        141.3330   45.4440   65.4670 H     4961  MOL4961     0.2052
  27883  H        142.3270   44.5800   66.3710 H     4961  MOL4961     0.2052
  27884  O        105.8210  175.8810  298.2440 O.3   4962  MOL4962    -0.4105
  27885  H        106.0690  175.5920  299.1470 H     4962  MOL4962     0.2052
  27886  H        106.0460  176.8430  298.1530 H     4962  MOL4962     0.2052
  27887  O        125.1470   32.2650   14.2340 O.3   4963  MOL4963    -0.4105
  27888  H        124.5340   32.1250   13.4820 H     4963  MOL4963     0.2052
  27889  H        124.6510   32.0900   15.0750 H     4963  MOL4963     0.2052
  27890  O         19.9010  197.7940  150.1060 O.3   4964  MOL4964    -0.4105
  27891  H         19.1330  197.7590  150.7140 H     4964  MOL4964     0.2052
  27892  H         20.5330  197.0740  150.3620 H     4964  MOL4964     0.2052
  27893  O        103.5150   72.7730  297.5390 O.3   4965  MOL4965    -0.4105
  27894  H        102.8630   73.3390  297.0750 H     4965  MOL4965     0.2052
  27895  H        103.3360   71.8280  297.2950 H     4965  MOL4965     0.2052
  27896  O         23.0440   77.2390   79.1120 O.3   4966  MOL4966    -0.4105
  27897  H         22.9760   76.6610   79.9010 H     4966  MOL4966     0.2052
  27898  H         23.6360   78.0030   79.3370 H     4966  MOL4966     0.2052
  27899  O        198.1980   12.6880  222.6560 O.3   4967  MOL4967    -0.4105
  27900  H        198.8720   13.4000  222.6510 H     4967  MOL4967     0.2052
  27901  H        198.1960   12.2700  223.5560 H     4967  MOL4967     0.2052
  27902  O         33.5670  190.9240  186.1680 O.3   4968  MOL4968    -0.4105
  27903  H         33.3950  190.6860  187.1040 H     4968  MOL4968     0.2052
  27904  H         32.7640  191.3850  185.8120 H     4968  MOL4968     0.2052
  27905  O         85.3860   72.9100   76.5220 O.3   4969  MOL4969    -0.4105
  27906  H         86.2560   73.1670   76.8940 H     4969  MOL4969     0.2052
  27907  H         84.9230   73.7330   76.2170 H     4969  MOL4969     0.2052
  27908  O         56.2330   78.3580   57.9290 O.3   4970  MOL4970    -0.4105
  27909  H         55.8190   78.7210   57.1190 H     4970  MOL4970     0.2052
  27910  H         55.5760   78.4240   58.6700 H     4970  MOL4970     0.2052
  27911  O        136.6220   44.1110   46.9250 O.3   4971  MOL4971    -0.4105
  27912  H        137.5180   44.0630   47.3190 H     4971  MOL4971     0.2052
  27913  H        136.3740   43.2050   46.6060 H     4971  MOL4971     0.2052
  27914  O         10.7390    4.8230  291.8110 O.3   4972  MOL4972    -0.4105
  27915  H         11.2470    4.5700  292.6110 H     4972  MOL4972     0.2052
  27916  H         10.9770    5.7570  291.5750 H     4972  MOL4972     0.2052
  27917  O         14.5090   96.3190  115.8670 O.3   4973  MOL4973    -0.4105
  27918  H         15.3080   95.8200  116.1370 H     4973  MOL4973     0.2052
  27919  H         14.7910   97.2260  115.5820 H     4973  MOL4973     0.2052
  27920  O         26.5060  157.2110  242.5220 O.3   4974  MOL4974    -0.4105
  27921  H         26.5880  156.2690  242.7790 H     4974  MOL4974     0.2052
  27922  H         25.6320  157.3350  242.0690 H     4974  MOL4974     0.2052
  27923  O         16.6550  102.3030   34.9100 O.3   4975  MOL4975    -0.4105
  27924  H         16.5140  103.1560   35.3710 H     4975  MOL4975     0.2052
  27925  H         17.6320  102.1490   34.8340 H     4975  MOL4975     0.2052
  27926  O        109.5430   29.3940  250.9700 O.3   4976  MOL4976    -0.4105
  27927  H        109.1410   29.1740  251.8360 H     4976  MOL4976     0.2052
  27928  H        109.6960   28.5480  250.4750 H     4976  MOL4976     0.2052
  27929  O        140.4290   61.5060   47.5850 O.3   4977  MOL4977    -0.4105
  27930  H        139.4930   61.7950   47.5390 H     4977  MOL4977     0.2052
  27931  H        140.4510   60.5160   47.5120 H     4977  MOL4977     0.2052
  27932  O        183.5610  145.3800  202.7840 O.3   4978  MOL4978    -0.4105
  27933  H        183.9000  144.7290  202.1350 H     4978  MOL4978     0.2052
  27934  H        182.8130  145.8780  202.3630 H     4978  MOL4978     0.2052
  27935  O        192.2750   69.4710  260.7310 O.3   4979  MOL4979    -0.4105
  27936  H        191.7360   68.6530  260.6860 H     4979  MOL4979     0.2052
  27937  H        191.7670   70.1500  261.2450 H     4979  MOL4979     0.2052
  27938  O          5.7350  125.3150  144.4850 O.3   4980  MOL4980    -0.4105
  27939  H          5.2350  125.1850  145.3170 H     4980  MOL4980     0.2052
  27940  H          5.9720  124.4220  144.1230 H     4980  MOL4980     0.2052
  27941  O         16.0490  176.5010   13.2460 O.3   4981  MOL4981    -0.4105
  27942  H         15.0720  176.5680   13.2150 H     4981  MOL4981     0.2052
  27943  H         16.3000  175.5520   13.1030 H     4981  MOL4981     0.2052
  27944  O        131.4760  146.9600    2.3950 O.3   4982  MOL4982    -0.4105
  27945  H        130.9970  147.8110    2.4800 H     4982  MOL4982     0.2052
  27946  H        132.4460  147.1560    2.3220 H     4982  MOL4982     0.2052
  27947  O         63.9630   39.2950  256.6790 O.3   4983  MOL4983    -0.4105
  27948  H         64.6880   39.5250  256.0610 H     4983  MOL4983     0.2052
  27949  H         63.7570   38.3300  256.5710 H     4983  MOL4983     0.2052
  27950  O        165.2550    4.2850  212.1560 O.3   4984  MOL4984    -0.4105
  27951  H        165.0160    4.0560  211.2330 H     4984  MOL4984     0.2052
  27952  H        164.9090    5.1950  212.3490 H     4984  MOL4984     0.2052
  27953  O        192.5950  195.7610  235.1660 O.3   4985  MOL4985    -0.4105
  27954  H        193.4610  195.8710  235.6100 H     4985  MOL4985     0.2052
  27955  H        191.9290  195.4870  235.8490 H     4985  MOL4985     0.2052
  27956  O         85.8830  139.3110  291.8200 O.3   4986  MOL4986    -0.4105
  27957  H         85.8850  140.0040  292.5140 H     4986  MOL4986     0.2052
  27958  H         86.6030  138.6610  292.0290 H     4986  MOL4986     0.2052
  27959  O          6.8080   37.3490  199.9240 O.3   4987  MOL4987    -0.4105
  27960  H          6.0220   36.7740  199.8130 H     4987  MOL4987     0.2052
  27961  H          7.6080   36.7680  200.0120 H     4987  MOL4987     0.2052
  27962  O        129.7610   17.1530    8.2720 O.3   4988  MOL4988    -0.4105
  27963  H        130.6710   17.4960    8.1510 H     4988  MOL4988     0.2052
  27964  H        129.1620   17.9220    8.4600 H     4988  MOL4988     0.2052
  27965  O          4.9230   13.7870  121.3970 O.3   4989  MOL4989    -0.4105
  27966  H          4.0290   13.9570  121.7610 H     4989  MOL4989     0.2052
  27967  H          5.2850   14.6430  121.0500 H     4989  MOL4989     0.2052
  27968  O         52.5880   68.2990  194.1450 O.3   4990  MOL4990    -0.4105
  27969  H         52.1930   67.4030  194.0940 H     4990  MOL4990     0.2052
  27970  H         53.5740   68.2000  194.1960 H     4990  MOL4990     0.2052
  27971  O        118.4730  155.1770   44.1340 O.3   4991  MOL4991    -0.4105
  27972  H        119.4430  155.1490   44.2720 H     4991  MOL4991     0.2052
  27973  H        118.2900  155.7240   43.3270 H     4991  MOL4991     0.2052
  27974  O        125.9570   73.0260  274.4180 O.3   4992  MOL4992    -0.4105
  27975  H        126.3870   73.8670  274.6800 H     4992  MOL4992     0.2052
  27976  H        125.1080   73.2430  273.9520 H     4992  MOL4992     0.2052
  27977  O        194.8750  178.8670  148.3140 O.3   4993  MOL4993    -0.4105
  27978  H        194.7930  178.0240  148.8070 H     4993  MOL4993     0.2052
  27979  H        194.0440  179.3920  148.4550 H     4993  MOL4993     0.2052
  27980  O         91.0860  101.2440  176.0880 O.3   4994  MOL4994    -0.4105
  27981  H         91.3190  100.5320  175.4560 H     4994  MOL4994     0.2052
  27982  H         91.9270  101.6290  176.4460 H     4994  MOL4994     0.2052
  27983  O          6.2880   16.5830  158.8290 O.3   4995  MOL4995    -0.4105
  27984  H          5.8860   17.2950  159.3700 H     4995  MOL4995     0.2052
  27985  H          5.5730   15.9410  158.5810 H     4995  MOL4995     0.2052
  27986  O        195.2490  198.3280  153.3020 O.3   4996  MOL4996    -0.4105
  27987  H        195.4220  199.2880  153.2100 H     4996  MOL4996     0.2052
  27988  H        194.7150  198.1860  154.1260 H     4996  MOL4996     0.2052
  27989  O         35.0690  116.4490  135.7420 O.3   4997  MOL4997    -0.4105
  27990  H         35.9880  116.6120  135.4430 H     4997  MOL4997     0.2052
  27991  H         34.8510  115.4960  135.5720 H     4997  MOL4997     0.2052
  27992  O        143.7510  101.4380   24.5030 O.3   4998  MOL4998    -0.4105
  27993  H        143.0550  101.5760   25.1800 H     4998  MOL4998     0.2052
  27994  H        143.6140  100.5440   24.0960 H     4998  MOL4998     0.2052
  27995  O         12.1060    4.8510  279.0600 O.3   4999  MOL4999    -0.4105
  27996  H         11.9430    5.8160  279.1230 H     4999  MOL4999     0.2052
  27997  H         11.2370    4.3990  278.9010 H     4999  MOL4999     0.2052
  27998  O        195.8540   37.1950   60.8980 O.3   5000  MOL5000    -0.4105
  27999  H        195.4600   37.2680   60.0040 H     5000  MOL5000     0.2052
  28000  H        195.8350   36.2400   61.1680 H     5000  MOL5000     0.2052
  28001  O         59.8060  195.9220  168.8000 O.3   5001  MOL5001    -0.4105
  28002  H         60.7350  196.1550  169.0080 H     5001  MOL5001     0.2052
  28003  H         59.4800  195.2970  169.4980 H     5001  MOL5001     0.2052
  28004  O         94.1510   60.1440  181.2540 O.3   5002  MOL5002    -0.4105
  28005  H         94.0020   59.6730  182.1010 H     5002  MOL5002     0.2052
  28006  H         93.4250   60.8090  181.1370 H     5002  MOL5002     0.2052
  28007  O        155.5640   46.5750  226.6590 O.3   5003  MOL5003    -0.4105
  28008  H        156.3110   46.6850  227.2850 H     5003  MOL5003     0.2052
  28009  H        155.4240   47.4370  226.1890 H     5003  MOL5003     0.2052
  28010  O        174.6570    9.3240  197.0980 O.3   5004  MOL5004    -0.4105
  28011  H        175.5540    8.9310  197.0940 H     5004  MOL5004     0.2052
  28012  H        174.0260    8.6550  197.4730 H     5004  MOL5004     0.2052
  28013  O          2.2730   80.8670  215.4970 O.3   5005  MOL5005    -0.4105
  28014  H          2.4750   80.0020  215.9110 H     5005  MOL5005     0.2052
  28015  H          1.3470   80.8320  215.1400 H     5005  MOL5005     0.2052
  28016  O        148.8790  193.5880  269.5040 O.3   5006  MOL5006    -0.4105
  28017  H        149.8170  193.8210  269.3420 H     5006  MOL5006     0.2052
  28018  H        148.3210  194.3810  269.2910 H     5006  MOL5006     0.2052
  28019  O        190.8470    3.1200   26.6990 O.3   5007  MOL5007    -0.4105
  28020  H        191.6700    3.5810   26.4350 H     5007  MOL5007     0.2052
  28021  H        190.6060    2.4800   25.9800 H     5007  MOL5007     0.2052
  28022  O        160.0470   53.4430  267.8900 O.3   5008  MOL5008    -0.4105
  28023  H        159.3230   54.0770  268.0750 H     5008  MOL5008     0.2052
  28024  H        160.8980   53.8430  268.2070 H     5008  MOL5008     0.2052
  28025  O         44.0110   62.7320  282.1600 O.3   5009  MOL5009    -0.4105
  28026  H         44.7620   63.0910  282.6760 H     5009  MOL5009     0.2052
  28027  H         43.8950   61.7770  282.4030 H     5009  MOL5009     0.2052
  28028  O        136.4410   39.3030  184.8760 O.3   5010  MOL5010    -0.4105
  28029  H        135.8900   40.0790  184.6410 H     5010  MOL5010     0.2052
  28030  H        136.0760   38.9020  185.7060 H     5010  MOL5010     0.2052
  28031  O        113.4910   61.0060   47.1310 O.3   5011  MOL5011    -0.4105
  28032  H        112.6970   60.6270   47.5620 H     5011  MOL5011     0.2052
  28033  H        113.4700   61.9910   47.2520 H     5011  MOL5011     0.2052
  28034  O        152.7490   12.9100  171.5550 O.3   5012  MOL5012    -0.4105
  28035  H        152.9360   11.9500  171.4910 H     5012  MOL5012     0.2052
  28036  H        151.7650   13.0330  171.5900 H     5012  MOL5012     0.2052
  28037  O          5.1970   53.3340   55.3140 O.3   5013  MOL5013    -0.4105
  28038  H          5.7580   53.7950   55.9720 H     5013  MOL5013     0.2052
  28039  H          4.8380   52.5100   55.7340 H     5013  MOL5013     0.2052
  28040  O        115.3120   25.5760  138.3060 O.3   5014  MOL5014    -0.4105
  28041  H        115.1130   26.1890  139.0450 H     5014  MOL5014     0.2052
  28042  H        115.1460   26.0550  137.4530 H     5014  MOL5014     0.2052
  28043  O        186.7510   58.8240  129.1790 O.3   5015  MOL5015    -0.4105
  28044  H        186.6140   59.7430  129.4910 H     5015  MOL5015     0.2052
  28045  H        187.6580   58.5340  129.4570 H     5015  MOL5015     0.2052
  28046  O         19.1600  118.0330   69.8590 O.3   5016  MOL5016    -0.4105
  28047  H         18.6660  117.1980   69.9970 H     5016  MOL5016     0.2052
  28048  H         20.1280  117.8430   69.9700 H     5016  MOL5016     0.2052
  28049  O        134.6830  182.7160   60.0120 O.3   5017  MOL5017    -0.4105
  28050  H        134.4400  181.7740   60.1270 H     5017  MOL5017     0.2052
  28051  H        134.9880  183.0680   60.8890 H     5017  MOL5017     0.2052
  28052  O        180.4330   41.2890  133.4180 O.3   5018  MOL5018    -0.4105
  28053  H        180.4780   42.2510  133.2380 H     5018  MOL5018     0.2052
  28054  H        180.0710   41.1610  134.3340 H     5018  MOL5018     0.2052
  28055  O        110.8240   51.3690  246.2190 O.3   5019  MOL5019    -0.4105
  28056  H        111.7270   51.7470  246.2600 H     5019  MOL5019     0.2052
  28057  H        110.1730   52.1180  246.2290 H     5019  MOL5019     0.2052
  28058  O        171.0850  107.1780  174.3730 O.3   5020  MOL5020    -0.4105
  28059  H        170.9770  106.5080  175.0800 H     5020  MOL5020     0.2052
  28060  H        170.3190  107.0940  173.7470 H     5020  MOL5020     0.2052
  28061  O        101.6620  116.0510   25.6360 O.3   5021  MOL5021    -0.4105
  28062  H        100.6830  116.0130   25.6720 H     5021  MOL5021     0.2052
  28063  H        101.9360  117.0040   25.6290 H     5021  MOL5021     0.2052
  28064  O         19.6720    6.5570   97.2430 O.3   5022  MOL5022    -0.4105
  28065  H         19.8790    6.8240   98.1630 H     5022  MOL5022     0.2052
  28066  H         20.4880    6.6820   96.6920 H     5022  MOL5022     0.2052
  28067  O         20.5410   57.4000  213.8240 O.3   5023  MOL5023    -0.4105
  28068  H         19.9590   58.1460  213.5690 H     5023  MOL5023     0.2052
  28069  H         19.9890   56.5770  213.8720 H     5023  MOL5023     0.2052
  28070  O         64.8370  147.8530   56.0620 O.3   5024  MOL5024    -0.4105
  28071  H         63.8730  147.7530   56.2070 H     5024  MOL5024     0.2052
  28072  H         65.0190  148.8020   55.8360 H     5024  MOL5024     0.2052
  28073  O         45.4060  149.0210  135.7680 O.3   5025  MOL5025    -0.4105
  28074  H         44.4270  149.0280  135.8250 H     5025  MOL5025     0.2052
  28075  H         45.7470  149.8570  136.1800 H     5025  MOL5025     0.2052
  28076  O         34.0390   74.4260  270.2570 O.3   5026  MOL5026    -0.4105
  28077  H         34.8190   73.9230  269.9420 H     5026  MOL5026     0.2052
  28078  H         33.2300   73.8710  270.1060 H     5026  MOL5026     0.2052
  28079  O        161.6640   70.0790  268.7480 O.3   5027  MOL5027    -0.4105
  28080  H        160.7020   69.8960  268.7680 H     5027  MOL5027     0.2052
  28081  H        162.1440   69.2110  268.7180 H     5027  MOL5027     0.2052
  28082  O         92.3040  152.4460   65.0530 O.3   5028  MOL5028    -0.4105
  28083  H         91.4360  152.1730   64.6890 H     5028  MOL5028     0.2052
  28084  H         92.5890  151.7680   65.7190 H     5028  MOL5028     0.2052
  28085  O        185.0550    6.0160  170.3770 O.3   5029  MOL5029    -0.4105
  28086  H        185.4410    6.6240  171.0410 H     5029  MOL5029     0.2052
  28087  H        184.2050    6.4110  170.0510 H     5029  MOL5029     0.2052
  28088  O        166.4790  179.9260  187.1080 O.3   5030  MOL5030    -0.4105
  28089  H        166.8910  180.7660  186.8150 H     5030  MOL5030     0.2052
  28090  H        165.5000  180.0720  187.1870 H     5030  MOL5030     0.2052
  28091  O        129.3750   48.6460   23.2510 O.3   5031  MOL5031    -0.4105
  28092  H        130.0730   48.4030   23.8940 H     5031  MOL5031     0.2052
  28093  H        129.3600   49.6340   23.1670 H     5031  MOL5031     0.2052
  28094  O         72.6770  143.4310  291.3460 O.3   5032  MOL5032    -0.4105
  28095  H         73.0370  142.5420  291.5440 H     5032  MOL5032     0.2052
  28096  H         71.8880  143.3230  290.7540 H     5032  MOL5032     0.2052
  28097  O        104.4760  113.1950  271.6800 O.3   5033  MOL5033    -0.4105
  28098  H        103.9230  114.0040  271.7030 H     5033  MOL5033     0.2052
  28099  H        104.3370  112.7010  272.5290 H     5033  MOL5033     0.2052
  28100  O         73.7590   31.0310  223.0750 O.3   5034  MOL5034    -0.4105
  28101  H         73.4850   31.3910  223.9450 H     5034  MOL5034     0.2052
  28102  H         74.7300   30.8300  223.1140 H     5034  MOL5034     0.2052
  28103  O        123.8480    5.8300  160.4760 O.3   5035  MOL5035    -0.4105
  28104  H        122.8710    5.7840  160.5250 H     5035  MOL5035     0.2052
  28105  H        124.1010    6.0690  159.5470 H     5035  MOL5035     0.2052
  28106  O         25.9400  131.7140  245.2470 O.3   5036  MOL5036    -0.4105
  28107  H         26.9040  131.8890  245.2240 H     5036  MOL5036     0.2052
  28108  H         25.4800  132.4460  244.7600 H     5036  MOL5036     0.2052
  28109  O         19.4230  100.1450  249.2500 O.3   5037  MOL5037    -0.4105
  28110  H         18.7120  100.5040  249.8220 H     5037  MOL5037     0.2052
  28111  H         19.0660   99.3510  248.7730 H     5037  MOL5037     0.2052
  28112  O         44.0670   50.1850  153.3900 O.3   5038  MOL5038    -0.4105
  28113  H         44.7150   49.4610  153.5210 H     5038  MOL5038     0.2052
  28114  H         44.5700   51.0260  153.2340 H     5038  MOL5038     0.2052
  28115  O         40.2030   90.1580   41.0890 O.3   5039  MOL5039    -0.4105
  28116  H         41.1570   90.3180   40.9340 H     5039  MOL5039     0.2052
  28117  H         40.0420   90.1630   42.0690 H     5039  MOL5039     0.2052
  28118  O         96.7580   29.8400  201.1770 O.3   5040  MOL5040    -0.4105
  28119  H         96.2030   29.0400  201.2830 H     5040  MOL5040     0.2052
  28120  H         97.3230   29.7220  200.3700 H     5040  MOL5040     0.2052
  28121  O        159.8960  151.9750  157.8620 O.3   5041  MOL5041    -0.4105
  28122  H        160.8540  151.8080  157.9800 H     5041  MOL5041     0.2052
  28123  H        159.4360  151.0990  157.7800 H     5041  MOL5041     0.2052
  28124  O         54.7910   23.6930  131.3190 O.3   5042  MOL5042    -0.4105
  28125  H         55.7600   23.7080  131.1680 H     5042  MOL5042     0.2052
  28126  H         54.5920   22.9910  131.9910 H     5042  MOL5042     0.2052
  28127  O        175.8300  126.0930  186.4250 O.3   5043  MOL5043    -0.4105
  28128  H        176.3240  126.8870  186.7190 H     5043  MOL5043     0.2052
  28129  H        176.4520  125.3200  186.4340 H     5043  MOL5043     0.2052
  28130  O         11.9280   98.6580  109.8910 O.3   5044  MOL5044    -0.4105
  28131  H         12.5440   99.4060  110.0340 H     5044  MOL5044     0.2052
  28132  H         11.0000   99.0040  109.9490 H     5044  MOL5044     0.2052
  28133  O        105.0060  190.1510  203.5610 O.3   5045  MOL5045    -0.4105
  28134  H        104.0900  190.4850  203.4620 H     5045  MOL5045     0.2052
  28135  H        105.1690  189.4780  202.8510 H     5045  MOL5045     0.2052
  28136  O         46.3590  132.6460  223.4660 O.3   5046  MOL5046    -0.4105
  28137  H         47.0280  132.2780  222.8510 H     5046  MOL5046     0.2052
  28138  H         45.7850  131.9010  223.7820 H     5046  MOL5046     0.2052
  28139  O         41.7850   95.1040  114.1620 O.3   5047  MOL5047    -0.4105
  28140  H         42.0790   96.0180  114.3580 H     5047  MOL5047     0.2052
  28141  H         42.5750   94.5810  113.8640 H     5047  MOL5047     0.2052
  28142  O        193.7230    1.0050  144.6390 O.3   5048  MOL5048    -0.4105
  28143  H        194.4500    1.4860  144.1890 H     5048  MOL5048     0.2052
  28144  H        193.9160    0.0330  144.5880 H     5048  MOL5048     0.2052
  28145  O         90.8690  164.4820  110.1440 O.3   5049  MOL5049    -0.4105
  28146  H         91.4810  163.9110  109.6350 H     5049  MOL5049     0.2052
  28147  H         91.4100  165.1040  110.6950 H     5049  MOL5049     0.2052
  28148  O         98.8640   35.1820  199.1950 O.3   5050  MOL5050    -0.4105
  28149  H         97.9750   35.0140  198.8170 H     5050  MOL5050     0.2052
  28150  H         99.2050   34.3310  199.5750 H     5050  MOL5050     0.2052
  28151  O        101.2850   83.2000    4.7160 O.3   5051  MOL5051    -0.4105
  28152  H        101.1390   82.3120    4.3270 H     5051  MOL5051     0.2052
  28153  H        102.2420   83.2760    4.9670 H     5051  MOL5051     0.2052
  28154  O        157.3980  187.2070   20.5880 O.3   5052  MOL5052    -0.4105
  28155  H        158.0620  187.7120   20.0740 H     5052  MOL5052     0.2052
  28156  H        157.8770  186.6570   21.2610 H     5052  MOL5052     0.2052
  28157  O         47.4240   92.0020  139.4620 O.3   5053  MOL5053    -0.4105
  28158  H         46.9750   91.1340  139.5260 H     5053  MOL5053     0.2052
  28159  H         46.7290   92.7080  139.4040 H     5053  MOL5053     0.2052
  28160  O        167.9700  110.5480  158.7190 O.3   5054  MOL5054    -0.4105
  28161  H        168.4520  109.8730  159.2400 H     5054  MOL5054     0.2052
  28162  H        168.5570  111.3420  158.6210 H     5054  MOL5054     0.2052
  28163  O         69.9860  181.7540  165.5350 O.3   5055  MOL5055    -0.4105
  28164  H         69.0160  181.6760  165.6530 H     5055  MOL5055     0.2052
  28165  H         70.2930  180.9910  164.9800 H     5055  MOL5055     0.2052
  28166  O         16.9790   53.4210  150.4430 O.3   5056  MOL5056    -0.4105
  28167  H         17.0490   52.6960  149.7880 H     5056  MOL5056     0.2052
  28168  H         16.0560   53.7840  150.4080 H     5056  MOL5056     0.2052
  28169  O         34.6610  130.9050  246.9000 O.3   5057  MOL5057    -0.4105
  28170  H         34.5370  131.3650  246.0440 H     5057  MOL5057     0.2052
  28171  H         34.9360  131.5770  247.5770 H     5057  MOL5057     0.2052
  28172  O         54.9120  193.4730  209.6290 O.3   5058  MOL5058    -0.4105
  28173  H         55.5980  193.2720  208.9590 H     5058  MOL5058     0.2052
  28174  H         55.3580  193.8730  210.4200 H     5058  MOL5058     0.2052
  28175  O        122.5390    8.4340   31.4100 O.3   5059  MOL5059    -0.4105
  28176  H        122.4650    7.4720   31.5860 H     5059  MOL5059     0.2052
  28177  H        123.4730    8.6290   31.1380 H     5059  MOL5059     0.2052
  28178  O         61.5720  141.9530  242.6860 O.3   5060  MOL5060    -0.4105
  28179  H         62.3600  141.9810  242.1040 H     5060  MOL5060     0.2052
  28180  H         61.8460  142.2510  243.5920 H     5060  MOL5060     0.2052
  28181  O          4.1200  194.0810  220.3820 O.3   5061  MOL5061    -0.4105
  28182  H          4.3400  194.8820  220.9020 H     5061  MOL5061     0.2052
  28183  H          4.9540  193.5600  220.2470 H     5061  MOL5061     0.2052
  28184  O         87.3380   76.3560  213.4210 O.3   5062  MOL5062    -0.4105
  28185  H         87.4010   75.3870  213.2860 H     5062  MOL5062     0.2052
  28186  H         86.6200   76.7060  212.8320 H     5062  MOL5062     0.2052
  28187  O         33.9630   12.6840  172.3030 O.3   5063  MOL5063    -0.4105
  28188  H         34.8530   13.0940  172.3000 H     5063  MOL5063     0.2052
  28189  H         33.2860   13.4080  172.2530 H     5063  MOL5063     0.2052
  28190  O         41.0430   35.2910   63.6890 O.3   5064  MOL5064    -0.4105
  28191  H         41.8090   34.7400   63.9560 H     5064  MOL5064     0.2052
  28192  H         40.2120   34.8090   63.9370 H     5064  MOL5064     0.2052
  28193  O        121.1960  104.5840  234.5680 O.3   5065  MOL5065    -0.4105
  28194  H        121.7540  104.6610  235.3700 H     5065  MOL5065     0.2052
  28195  H        120.9440  103.6310  234.4560 H     5065  MOL5065     0.2052
  28196  O         35.4070   31.9770  196.4320 O.3   5066  MOL5066    -0.4105
  28197  H         34.8340   32.7710  196.3960 H     5066  MOL5066     0.2052
  28198  H         34.8530   31.1850  196.2070 H     5066  MOL5066     0.2052
  28199  O         70.5480  162.3360  290.8780 O.3   5067  MOL5067    -0.4105
  28200  H         69.8280  161.6920  290.7090 H     5067  MOL5067     0.2052
  28201  H         71.3070  162.1170  290.2770 H     5067  MOL5067     0.2052
  28202  O         50.8980   94.8420  290.1990 O.3   5068  MOL5068    -0.4105
  28203  H         51.8520   94.8150  290.4200 H     5068  MOL5068     0.2052
  28204  H         50.5760   93.9090  290.0940 H     5068  MOL5068     0.2052
  28205  O        120.9520   46.8430   85.6790 O.3   5069  MOL5069    -0.4105
  28206  H        120.8730   46.0440   85.1170 H     5069  MOL5069     0.2052
  28207  H        121.9070   47.1130   85.7010 H     5069  MOL5069     0.2052
  28208  O        145.7050   96.4610  216.4800 O.3   5070  MOL5070    -0.4105
  28209  H        145.2760   95.6100  216.2530 H     5070  MOL5070     0.2052
  28210  H        146.6840   96.3110  216.5300 H     5070  MOL5070     0.2052
  28211  O        196.4240  122.3710   61.4230 O.3   5071  MOL5071    -0.4105
  28212  H        196.4420  121.4110   61.2270 H     5071  MOL5071     0.2052
  28213  H        196.0450  122.8410   60.6350 H     5071  MOL5071     0.2052
  28214  O         86.1500   42.5840   97.0920 O.3   5072  MOL5072    -0.4105
  28215  H         85.7080   41.9310   96.5090 H     5072  MOL5072     0.2052
  28216  H         85.4490   43.0870   97.5820 H     5072  MOL5072     0.2052
  28217  O        163.6190  194.3950   89.9290 O.3   5073  MOL5073    -0.4105
  28218  H        162.9430  194.4420   90.6370 H     5073  MOL5073     0.2052
  28219  H        163.8540  193.4420   89.7870 H     5073  MOL5073     0.2052
  28220  O         46.5180    9.8960  219.4180 O.3   5074  MOL5074    -0.4105
  28221  H         47.2040    9.1980  219.3660 H     5074  MOL5074     0.2052
  28222  H         45.6350    9.4570  219.5220 H     5074  MOL5074     0.2052
  28223  O        139.4690   47.8160   36.3360 O.3   5075  MOL5075    -0.4105
  28224  H        139.5230   46.8430   36.2300 H     5075  MOL5075     0.2052
  28225  H        140.3930   48.1710   36.4150 H     5075  MOL5075     0.2052
  28226  O        140.0290  144.7230  284.4210 O.3   5076  MOL5076    -0.4105
  28227  H        139.3770  145.4240  284.6300 H     5076  MOL5076     0.2052
  28228  H        140.9230  145.0310  284.7230 H     5076  MOL5076     0.2052
  28229  O        110.3660  171.7730  109.6880 O.3   5077  MOL5077    -0.4105
  28230  H        111.1980  171.4970  109.2490 H     5077  MOL5077     0.2052
  28231  H        110.5030  171.7280  110.6690 H     5077  MOL5077     0.2052
  28232  O        163.3900  142.3980    3.5160 O.3   5078  MOL5078    -0.4105
  28233  H        162.4610  142.7090    3.5210 H     5078  MOL5078     0.2052
  28234  H        163.8200  142.6920    4.3610 H     5078  MOL5078     0.2052
  28235  O          1.6680   96.3010    8.9590 O.3   5079  MOL5079    -0.4105
  28236  H          2.0350   96.3620    9.8660 H     5079  MOL5079     0.2052
  28237  H          1.1220   95.4750    8.9000 H     5079  MOL5079     0.2052
  28238  O         10.3610   63.8410  178.3580 O.3   5080  MOL5080    -0.4105
  28239  H          9.4990   63.6050  178.7620 H     5080  MOL5080     0.2052
  28240  H         10.5230   63.2300  177.5940 H     5080  MOL5080     0.2052
  28241  O         65.6410   29.7280  171.5130 O.3   5081  MOL5081    -0.4105
  28242  H         66.2860   29.0520  171.2190 H     5081  MOL5081     0.2052
  28243  H         65.8210   29.9360  172.4660 H     5081  MOL5081     0.2052
  28244  O        122.8940   92.2320  186.3580 O.3   5082  MOL5082    -0.4105
  28245  H        123.1810   92.4870  185.4570 H     5082  MOL5082     0.2052
  28246  H        122.3010   91.4390  186.2830 H     5082  MOL5082     0.2052
  28247  O        194.9950   48.9100  177.1480 O.3   5083  MOL5083    -0.4105
  28248  H        194.2060   48.7190  177.6960 H     5083  MOL5083     0.2052
  28249  H        194.8530   49.7800  176.6910 H     5083  MOL5083     0.2052
  28250  O        163.2870  155.2720  158.0230 O.3   5084  MOL5084    -0.4105
  28251  H        162.7570  156.0580  157.7730 H     5084  MOL5084     0.2052
  28252  H        164.0920  155.2430  157.4430 H     5084  MOL5084     0.2052
  28253  O         67.0140  158.5890   34.3840 O.3   5085  MOL5085    -0.4105
  28254  H         66.1630  159.0770   34.3710 H     5085  MOL5085     0.2052
  28255  H         66.8150  157.6180   34.4190 H     5085  MOL5085     0.2052
  28256  O         96.4540  191.2880  262.6550 O.3   5086  MOL5086    -0.4105
  28257  H         95.8260  191.1960  261.9090 H     5086  MOL5086     0.2052
  28258  H         97.0420  192.0660  262.4730 H     5086  MOL5086     0.2052
  28259  O        116.9960   73.6910  265.5880 O.3   5087  MOL5087    -0.4105
  28260  H        117.7280   74.2940  265.3430 H     5087  MOL5087     0.2052
  28261  H        116.1380   74.1720  265.4500 H     5087  MOL5087     0.2052
  28262  O         59.6720   52.7450  237.2760 O.3   5088  MOL5088    -0.4105
  28263  H         59.2840   52.6990  238.1740 H     5088  MOL5088     0.2052
  28264  H         58.9800   53.0900  236.6550 H     5088  MOL5088     0.2052
  28265  O         36.1000  120.7820  113.9890 O.3   5089  MOL5089    -0.4105
  28266  H         35.5340  119.9860  114.0720 H     5089  MOL5089     0.2052
  28267  H         37.0320  120.5250  114.2140 H     5089  MOL5089     0.2052
  28268  O          7.7790   97.7560  126.3630 O.3   5090  MOL5090    -0.4105
  28269  H          7.4530   97.0540  125.7620 H     5090  MOL5090     0.2052
  28270  H          7.8210   98.6070  125.8530 H     5090  MOL5090     0.2052
  28271  O         53.9410  118.4660  285.0510 O.3   5091  MOL5091    -0.4105
  28272  H         54.7770  118.0720  285.3790 H     5091  MOL5091     0.2052
  28273  H         53.7630  119.2930  285.5700 H     5091  MOL5091     0.2052
  28274  O         81.3890  184.8830  215.5290 O.3   5092  MOL5092    -0.4105
  28275  H         80.5810  184.3280  215.4960 H     5092  MOL5092     0.2052
  28276  H         81.8630  184.6900  216.3790 H     5092  MOL5092     0.2052
  28277  O         85.3410   57.7610   72.8920 O.3   5093  MOL5093    -0.4105
  28278  H         85.6410   58.2450   73.6890 H     5093  MOL5093     0.2052
  28279  H         84.7590   58.3650   72.3620 H     5093  MOL5093     0.2052
  28280  O        155.6490  145.4110    8.7780 O.3   5094  MOL5094    -0.4105
  28281  H        155.7040  146.3890    8.7650 H     5094  MOL5094     0.2052
  28282  H        156.5580  145.0470    8.6150 H     5094  MOL5094     0.2052
  28283  O         16.0230    4.2800  208.6670 O.3   5095  MOL5095    -0.4105
  28284  H         15.2000    4.1580  208.1490 H     5095  MOL5095     0.2052
  28285  H         16.7800    4.3650  208.0310 H     5095  MOL5095     0.2052
  28286  O         28.4170   13.4290  219.2800 O.3   5096  MOL5096    -0.4105
  28287  H         28.0780   12.7870  219.9380 H     5096  MOL5096     0.2052
  28288  H         27.7080   13.5840  218.6030 H     5096  MOL5096     0.2052
  28289  O         67.6250   49.8640    1.3470 O.3   5097  MOL5097    -0.4105
  28290  H         68.1910   50.5300    0.9030 H     5097  MOL5097     0.2052
  28291  H         66.7480   49.8430    0.8820 H     5097  MOL5097     0.2052
  28292  O        199.2720  118.5350  199.5510 O.3   5098  MOL5098    -0.4105
  28293  H        198.6410  119.2510  199.3290 H     5098  MOL5098     0.2052
  28294  H        198.7630  117.7880  199.9600 H     5098  MOL5098     0.2052
  28295  O         94.1520   29.3510  282.5460 O.3   5099  MOL5099    -0.4105
  28296  H         93.7430   28.5050  282.2680 H     5099  MOL5099     0.2052
  28297  H         93.6350   30.0940  282.1400 H     5099  MOL5099     0.2052
  28298  O         14.5890  116.7550  186.2370 O.3   5100  MOL5100    -0.4105
  28299  H         13.9530  116.5580  186.9560 H     5100  MOL5100     0.2052
  28300  H         14.0800  116.8500  185.3900 H     5100  MOL5100     0.2052
  28301  O        193.7050  125.5120  205.0520 O.3   5101  MOL5101    -0.4105
  28302  H        194.5810  125.9510  205.0970 H     5101  MOL5101     0.2052
  28303  H        193.0140  126.2120  204.9220 H     5101  MOL5101     0.2052
  28304  O         85.5240  188.3510  240.3210 O.3   5102  MOL5102    -0.4105
  28305  H         86.2360  188.9920  240.1170 H     5102  MOL5102     0.2052
  28306  H         84.7320  188.8570  240.6400 H     5102  MOL5102     0.2052
  28307  O          2.6920  113.0740  211.7410 O.3   5103  MOL5103    -0.4105
  28308  H          2.4130  114.0100  211.6630 H     5103  MOL5103     0.2052
  28309  H          1.9150  112.5440  212.0550 H     5103  MOL5103     0.2052
  28310  O         64.1650   28.6670  108.9230 O.3   5104  MOL5104    -0.4105
  28311  H         64.9360   28.2780  108.4580 H     5104  MOL5104     0.2052
  28312  H         64.1420   28.3000  109.8440 H     5104  MOL5104     0.2052
  28313  O         36.6170  110.0940  130.1010 O.3   5105  MOL5105    -0.4105
  28314  H         36.9620  109.4300  130.7330 H     5105  MOL5105     0.2052
  28315  H         35.7350  110.4070  130.4300 H     5105  MOL5105     0.2052
  28316  O        195.8860  188.5680  262.8890 O.3   5106  MOL5106    -0.4105
  28317  H        196.6530  189.1340  262.6630 H     5106  MOL5106     0.2052
  28318  H        196.2080  187.6360  262.9980 H     5106  MOL5106     0.2052
  28319  O         62.0840  183.1960  292.3240 O.3   5107  MOL5107    -0.4105
  28320  H         61.4830  182.8150  292.9970 H     5107  MOL5107     0.2052
  28321  H         61.6030  183.9270  291.8560 H     5107  MOL5107     0.2052
  28322  O         54.1320   42.4970   45.6360 O.3   5108  MOL5108    -0.4105
  28323  H         55.0660   42.5950   45.9170 H     5108  MOL5108     0.2052
  28324  H         53.6540   41.9660   46.3240 H     5108  MOL5108     0.2052
  28325  O         78.7740   11.7780   62.4860 O.3   5109  MOL5109    -0.4105
  28326  H         78.9710   12.5940   61.9810 H     5109  MOL5109     0.2052
  28327  H         77.7890   11.6640   62.5190 H     5109  MOL5109     0.2052
  28328  O         77.6430  128.6170  294.6360 O.3   5110  MOL5110    -0.4105
  28329  H         78.5280  128.4350  294.2580 H     5110  MOL5110     0.2052
  28330  H         77.2040  127.7490  294.8320 H     5110  MOL5110     0.2052
  28331  O        188.6400  122.2940  195.9090 O.3   5111  MOL5111    -0.4105
  28332  H        188.7410  122.3900  194.9390 H     5111  MOL5111     0.2052
  28333  H        189.2770  122.9130  196.3500 H     5111  MOL5111     0.2052
  28334  O        192.8440   82.7370  287.1010 O.3   5112  MOL5112    -0.4105
  28335  H        193.8160   82.6160  287.1390 H     5112  MOL5112     0.2052
  28336  H        192.6190   83.1750  286.2400 H     5112  MOL5112     0.2052
  28337  O          8.7740  117.0430  140.8960 O.3   5113  MOL5113    -0.4105
  28338  H          9.2470  116.1840  140.9100 H     5113  MOL5113     0.2052
  28339  H          8.8230  117.4390  141.8040 H     5113  MOL5113     0.2052
  28340  O         83.5970  156.1140  270.2750 O.3   5114  MOL5114    -0.4105
  28341  H         83.6710  155.1450  270.1490 H     5114  MOL5114     0.2052
  28342  H         82.7160  156.4070  269.9260 H     5114  MOL5114     0.2052
  28343  O        160.7960   20.6350  169.4260 O.3   5115  MOL5115    -0.4105
  28344  H        161.3180   19.8250  169.2430 H     5115  MOL5115     0.2052
  28345  H        160.1690   20.7770  168.6700 H     5115  MOL5115     0.2052
  28346  O         30.0210   62.3970  223.4670 O.3   5116  MOL5116    -0.4105
  28347  H         30.5090   61.5580  223.3280 H     5116  MOL5116     0.2052
  28348  H         29.2290   62.2060  224.0340 H     5116  MOL5116     0.2052
  28349  O        139.9830    4.2610  198.6450 O.3   5117  MOL5117    -0.4105
  28350  H        140.1840    3.3990  198.2240 H     5117  MOL5117     0.2052
  28351  H        139.5250    4.0870  199.5070 H     5117  MOL5117     0.2052
  28352  O          2.8390   31.6360   40.9950 O.3   5118  MOL5118    -0.4105
  28353  H          1.8790   31.4790   40.8700 H     5118  MOL5118     0.2052
  28354  H          3.3160   30.7790   40.8450 H     5118  MOL5118     0.2052
  28355  O        150.8600  178.8280  253.7490 O.3   5119  MOL5119    -0.4105
  28356  H        149.8980  178.8250  253.5610 H     5119  MOL5119     0.2052
  28357  H        151.2240  177.9330  253.5230 H     5119  MOL5119     0.2052
  28358  O        172.8350  154.0090    0.9080 O.3   5120  MOL5120    -0.4105
  28359  H        172.5180  153.2340    0.3990 H     5120  MOL5120     0.2052
  28360  H        173.5630  153.7070    1.5110 H     5120  MOL5120     0.2052
  28361  O         61.7170   24.4960  254.7270 O.3   5121  MOL5121    -0.4105
  28362  H         62.0800   24.2200  255.5950 H     5121  MOL5121     0.2052
  28363  H         60.7450   24.6630  254.8360 H     5121  MOL5121     0.2052
  28364  O        143.6220   41.4700  154.4340 O.3   5122  MOL5122    -0.4105
  28365  H        144.4810   41.7220  154.8320 H     5122  MOL5122     0.2052
  28366  H        143.6860   40.5280  154.1280 H     5122  MOL5122     0.2052
  28367  O        195.7270   34.4130  182.8180 O.3   5123  MOL5123    -0.4105
  28368  H        196.0350   35.2010  183.3130 H     5123  MOL5123     0.2052
  28369  H        196.5170   33.9790  182.4030 H     5123  MOL5123     0.2052
  28370  O         31.2660  194.4830  190.2400 O.3   5124  MOL5124    -0.4105
  28371  H         31.6110  193.5770  190.0930 H     5124  MOL5124     0.2052
  28372  H         30.2830  194.4250  190.3580 H     5124  MOL5124     0.2052
  28373  O          0.2910    3.5800   74.7200 O.3   5125  MOL5125    -0.4105
  28374  H          0.0010    3.7450   73.7980 H     5125  MOL5125     0.2052
  28375  H          0.6740    4.4210   75.0790 H     5125  MOL5125     0.2052
  28376  O         27.9600  178.6130  258.1750 O.3   5126  MOL5126    -0.4105
  28377  H         28.1090  177.6440  258.1970 H     5126  MOL5126     0.2052
  28378  H         27.4890  178.8360  257.3310 H     5126  MOL5126     0.2052
  28379  O         93.1680  162.8630  298.4980 O.3   5127  MOL5127    -0.4105
  28380  H         94.0930  162.6520  298.2520 H     5127  MOL5127     0.2052
  28381  H         93.0710  163.8500  298.5250 H     5127  MOL5127     0.2052
  28382  O          7.7300  173.1170  135.0590 O.3   5128  MOL5128    -0.4105
  28383  H          6.8080  172.9130  135.3210 H     5128  MOL5128     0.2052
  28384  H          7.7650  174.0620  134.7600 H     5128  MOL5128     0.2052
  28385  O        160.9390  103.5510   96.6960 O.3   5129  MOL5129    -0.4105
  28386  H        161.7520  103.6910   97.2250 H     5129  MOL5129     0.2052
  28387  H        160.2760  103.0810   97.2640 H     5129  MOL5129     0.2052
  28388  O         40.7430   54.3390   14.4860 O.3   5130  MOL5130    -0.4105
  28389  H         41.1310   53.4660   14.7040 H     5130  MOL5130     0.2052
  28390  H         40.6670   54.8630   15.3240 H     5130  MOL5130     0.2052
  28391  O        190.7030  121.7350   11.0500 O.3   5131  MOL5131    -0.4105
  28392  H        191.0590  120.9470   11.5100 H     5131  MOL5131     0.2052
  28393  H        189.7150  121.7260   11.1380 H     5131  MOL5131     0.2052
  28394  O        191.8690   64.7730    6.3390 O.3   5132  MOL5132    -0.4105
  28395  H        191.6970   65.5640    5.7860 H     5132  MOL5132     0.2052
  28396  H        192.8500   64.6270    6.3750 H     5132  MOL5132     0.2052
  28397  O        185.3260  164.8770  166.1600 O.3   5133  MOL5133    -0.4105
  28398  H        185.8390  164.2880  165.5670 H     5133  MOL5133     0.2052
  28399  H        185.9400  165.5710  166.5150 H     5133  MOL5133     0.2052
  28400  O        156.4730  148.9560   92.4550 O.3   5134  MOL5134    -0.4105
  28401  H        156.8820  149.8460   92.5010 H     5134  MOL5134     0.2052
  28402  H        157.1900  148.2930   92.2790 H     5134  MOL5134     0.2052
  28403  O         59.6510  185.9230  186.9410 O.3   5135  MOL5135    -0.4105
  28404  H         59.5790  185.9790  185.9650 H     5135  MOL5135     0.2052
  28405  H         58.8550  186.3640  187.3360 H     5135  MOL5135     0.2052
  28406  O         57.4810  137.9890   42.4320 O.3   5136  MOL5136    -0.4105
  28407  H         57.0520  138.8700   42.4040 H     5136  MOL5136     0.2052
  28408  H         58.3060  138.0630   42.9790 H     5136  MOL5136     0.2052
  28409  O         56.9870   90.2510   53.0870 O.3   5137  MOL5137    -0.4105
  28410  H         57.1490   89.3070   53.2920 H     5137  MOL5137     0.2052
  28411  H         56.0140   90.3740   52.9360 H     5137  MOL5137     0.2052
  28412  O         58.4580   89.0400   26.9710 O.3   5138  MOL5138    -0.4105
  28413  H         58.9340   88.2290   26.6930 H     5138  MOL5138     0.2052
  28414  H         57.5590   88.7760   27.2960 H     5138  MOL5138     0.2052
  28415  O        170.5660  144.5860  211.1230 O.3   5139  MOL5139    -0.4105
  28416  H        169.7300  145.0970  211.1020 H     5139  MOL5139     0.2052
  28417  H        171.2980  145.1740  210.8010 H     5139  MOL5139     0.2052
  28418  O        198.9070   15.8550   28.2920 O.3   5140  MOL5140    -0.4105
  28419  H        198.3450   16.6170   28.5450 H     5140  MOL5140     0.2052
  28420  H        198.3350   15.0450   28.2590 H     5140  MOL5140     0.2052
  28421  O         86.5060  131.3340  270.0040 O.3   5141  MOL5141    -0.4105
  28422  H         85.7200  130.7480  270.0080 H     5141  MOL5141     0.2052
  28423  H         87.3150  130.7690  270.1020 H     5141  MOL5141     0.2052
  28424  O         61.1040  188.2570   77.7110 O.3   5142  MOL5142    -0.4105
  28425  H         60.5300  187.4630   77.7150 H     5142  MOL5142     0.2052
  28426  H         62.0500  187.9570   77.7070 H     5142  MOL5142     0.2052
  28427  O        125.3740  177.8160   19.9180 O.3   5143  MOL5143    -0.4105
  28428  H        125.3440  178.5490   19.2670 H     5143  MOL5143     0.2052
  28429  H        125.6020  178.1980   20.8050 H     5143  MOL5143     0.2052
  28430  O        179.7050   81.3770  208.3550 O.3   5144  MOL5144    -0.4105
  28431  H        179.4590   82.1450  208.9120 H     5144  MOL5144     0.2052
  28432  H        180.1470   80.7030  208.9330 H     5144  MOL5144     0.2052
  28433  O         78.9360  121.6380   67.9880 O.3   5145  MOL5145    -0.4105
  28434  H         79.0110  120.7010   68.2640 H     5145  MOL5145     0.2052
  28435  H         79.6400  122.1570   68.4580 H     5145  MOL5145     0.2052
  28436  O        110.5850   12.5260  168.4480 O.3   5146  MOL5146    -0.4105
  28437  H        109.7480   12.4290  167.9480 H     5146  MOL5146     0.2052
  28438  H        111.0080   13.3830  168.1820 H     5146  MOL5146     0.2052
  28439  O        110.6890   89.3440  192.7780 O.3   5147  MOL5147    -0.4105
  28440  H        111.5510   89.7620  192.5700 H     5147  MOL5147     0.2052
  28441  H        110.8550   88.3990  193.0290 H     5147  MOL5147     0.2052
  28442  O        112.2860   11.5100  174.5850 O.3   5148  MOL5148    -0.4105
  28443  H        112.7660   10.6550  174.5870 H     5148  MOL5148     0.2052
  28444  H        112.9530   12.2410  174.6560 H     5148  MOL5148     0.2052
  28445  O         89.9310   33.7120   88.0170 O.3   5149  MOL5149    -0.4105
  28446  H         90.3970   33.9350   87.1840 H     5149  MOL5149     0.2052
  28447  H         90.5570   33.8620   88.7720 H     5149  MOL5149     0.2052
  28448  O        157.1210  183.6920    5.4030 O.3   5150  MOL5150    -0.4105
  28449  H        157.5610  184.4930    5.7570 H     5150  MOL5150     0.2052
  28450  H        157.8240  183.0520    5.1180 H     5150  MOL5150     0.2052
  28451  O        177.3180  167.5870  106.0520 O.3   5151  MOL5151    -0.4105
  28452  H        176.5460  167.7810  106.6230 H     5151  MOL5151     0.2052
  28453  H        178.0470  168.2170  106.2910 H     5151  MOL5151     0.2052
  28454  O        147.5170  115.0590  284.3490 O.3   5152  MOL5152    -0.4105
  28455  H        147.5370  116.0350  284.2630 H     5152  MOL5152     0.2052
  28456  H        148.0380  114.6710  283.5980 H     5152  MOL5152     0.2052
  28457  O         28.1280   86.6790   21.0020 O.3   5153  MOL5153    -0.4105
  28458  H         28.6440   86.5720   21.8290 H     5153  MOL5153     0.2052
  28459  H         28.4280   87.5120   20.5550 H     5153  MOL5153     0.2052
  28460  O          1.1720  153.4040  144.4080 O.3   5154  MOL5154    -0.4105
  28461  H          1.3300  154.3470  144.1930 H     5154  MOL5154     0.2052
  28462  H          0.9980  152.9180  143.5610 H     5154  MOL5154     0.2052
  28463  O         35.9850   36.1220  182.4570 O.3   5155  MOL5155    -0.4105
  28464  H         35.6070   37.0210  182.5570 H     5155  MOL5155     0.2052
  28465  H         36.0010   35.8970  181.4910 H     5155  MOL5155     0.2052
  28466  O         44.1650  138.9220   46.6070 O.3   5156  MOL5156    -0.4105
  28467  H         43.5400  139.5180   46.1450 H     5156  MOL5156     0.2052
  28468  H         44.8620  138.6390   45.9600 H     5156  MOL5156     0.2052
  28469  O        148.6860  166.7250  151.2200 O.3   5157  MOL5157    -0.4105
  28470  H        148.8610  167.6580  151.4620 H     5157  MOL5157     0.2052
  28471  H        147.7920  166.4760  151.5700 H     5157  MOL5157     0.2052
  28472  O         62.1150    4.3210  278.0210 O.3   5158  MOL5158    -0.4105
  28473  H         61.3140    4.2170  278.5770 H     5158  MOL5158     0.2052
  28474  H         62.4900    5.2250  278.1830 H     5158  MOL5158     0.2052
  28475  O        141.7590  180.9760  216.7610 O.3   5159  MOL5159    -0.4105
  28476  H        140.9460  181.2840  217.2130 H     5159  MOL5159     0.2052
  28477  H        141.6540  180.0100  216.5590 H     5159  MOL5159     0.2052
  28478  O        185.8810  108.2190  233.2930 O.3   5160  MOL5160    -0.4105
  28479  H        185.7060  107.2660  233.4420 H     5160  MOL5160     0.2052
  28480  H        186.5970  108.5040  233.9180 H     5160  MOL5160     0.2052
  28481  O        157.8490   59.8960  295.6040 O.3   5161  MOL5161    -0.4105
  28482  H        158.7430   59.7350  295.9720 H     5161  MOL5161     0.2052
  28483  H        157.6080   59.1260  295.0270 H     5161  MOL5161     0.2052
  28484  O        148.5170  160.7350  276.1270 O.3   5162  MOL5162    -0.4105
  28485  H        149.4000  160.8230  275.7110 H     5162  MOL5162     0.2052
  28486  H        148.2810  159.7710  276.1530 H     5162  MOL5162     0.2052
  28487  O         24.4480  146.8920  199.1560 O.3   5163  MOL5163    -0.4105
  28488  H         23.7050  147.4530  199.4630 H     5163  MOL5163     0.2052
  28489  H         24.1780  145.9420  199.2460 H     5163  MOL5163     0.2052
  28490  O         15.3730   60.8130   67.6260 O.3   5164  MOL5164    -0.4105
  28491  H         14.4010   60.9080   67.5450 H     5164  MOL5164     0.2052
  28492  H         15.7300   61.6350   68.0520 H     5164  MOL5164     0.2052
  28493  O         22.9220   33.4640   80.1920 O.3   5165  MOL5165    -0.4105
  28494  H         22.3150   32.8030   79.7990 H     5165  MOL5165     0.2052
  28495  H         22.9240   34.2680   79.6110 H     5165  MOL5165     0.2052
  28496  O         27.2310   33.4600   49.5930 O.3   5166  MOL5166    -0.4105
  28497  H         26.4040   33.4410   50.1180 H     5166  MOL5166     0.2052
  28498  H         27.9980   33.4860   50.2220 H     5166  MOL5166     0.2052
  28499  O         23.4780   77.8830  237.1920 O.3   5167  MOL5167    -0.4105
  28500  H         23.7150   76.9370  237.0920 H     5167  MOL5167     0.2052
  28501  H         22.4920   77.9480  237.2850 H     5167  MOL5167     0.2052
  28502  O         73.4630   70.6670  256.9100 O.3   5168  MOL5168    -0.4105
  28503  H         72.9950   69.8090  256.8350 H     5168  MOL5168     0.2052
  28504  H         73.0250   71.3130  256.2980 H     5168  MOL5168     0.2052
  28505  O          9.1940   86.7770  190.8250 O.3   5169  MOL5169    -0.4105
  28506  H          9.5830   86.5670  191.6990 H     5169  MOL5169     0.2052
  28507  H          8.7080   85.9750  190.5000 H     5169  MOL5169     0.2052
  28508  O          9.7490  104.7240  167.7210 O.3   5170  MOL5170    -0.4105
  28509  H          9.9550  104.0390  168.3910 H     5170  MOL5170     0.2052
  28510  H          8.8810  105.1410  167.9600 H     5170  MOL5170     0.2052
  28511  O        145.6330  192.1070  242.0340 O.3   5171  MOL5171    -0.4105
  28512  H        145.7460  193.0760  242.1220 H     5171  MOL5171     0.2052
  28513  H        146.5010  191.6730  242.2420 H     5171  MOL5171     0.2052
  28514  O        182.4890  146.6340  157.0940 O.3   5172  MOL5172    -0.4105
  28515  H        182.0330  146.0350  157.7220 H     5172  MOL5172     0.2052
  28516  H        181.8560  147.3530  156.8350 H     5172  MOL5172     0.2052
  28517  O         24.7280    1.0910   63.0220 O.3   5173  MOL5173    -0.4105
  28518  H         23.7640    1.2000   62.8870 H     5173  MOL5173     0.2052
  28519  H         24.9000    1.0340   63.9980 H     5173  MOL5173     0.2052
  28520  O         19.0460  162.1230   36.1940 O.3   5174  MOL5174    -0.4105
  28521  H         19.8600  162.6360   36.0060 H     5174  MOL5174     0.2052
  28522  H         18.7870  162.2860   37.1380 H     5174  MOL5174     0.2052
  28523  O         87.7340  117.2260  184.8420 O.3   5175  MOL5175    -0.4105
  28524  H         88.2600  116.4040  184.9310 H     5175  MOL5175     0.2052
  28525  H         87.3750  117.2660  183.9180 H     5175  MOL5175     0.2052
  28526  O         20.0040   73.1270   92.8240 O.3   5176  MOL5176    -0.4105
  28527  H         19.2330   73.6120   93.1880 H     5176  MOL5176     0.2052
  28528  H         20.6790   73.0320   93.5450 H     5176  MOL5176     0.2052
  28529  O        131.0060   45.9950  152.8040 O.3   5177  MOL5177    -0.4105
  28530  H        130.7070   45.6030  151.9570 H     5177  MOL5177     0.2052
  28531  H        130.7850   46.9620  152.7930 H     5177  MOL5177     0.2052
  28532  O        121.0000  164.8480  266.0730 O.3   5178  MOL5178    -0.4105
  28533  H        121.2690  164.2880  266.8310 H     5178  MOL5178     0.2052
  28534  H        120.8450  164.2570  265.2910 H     5178  MOL5178     0.2052
  28535  O         61.0010   42.6410  206.2680 O.3   5179  MOL5179    -0.4105
  28536  H         61.1570   41.9170  205.6260 H     5179  MOL5179     0.2052
  28537  H         61.8820   42.9920  206.5600 H     5179  MOL5179     0.2052
  28538  O         46.6890  164.7980   17.7040 O.3   5180  MOL5180    -0.4105
  28539  H         46.8320  164.6970   16.7400 H     5180  MOL5180     0.2052
  28540  H         46.1260  164.0420   18.0150 H     5180  MOL5180     0.2052
  28541  O         20.7750   79.7170  122.9650 O.3   5181  MOL5181    -0.4105
  28542  H         20.3930   80.4330  123.5150 H     5181  MOL5181     0.2052
  28543  H         20.0380   79.2910  122.4550 H     5181  MOL5181     0.2052
  28544  O        114.5450   33.1340  224.1330 O.3   5182  MOL5182    -0.4105
  28545  H        114.8280   33.6160  223.3280 H     5182  MOL5182     0.2052
  28546  H        113.8480   32.4780  223.8740 H     5182  MOL5182     0.2052
  28547  O         83.2710  152.6070  133.7370 O.3   5183  MOL5183    -0.4105
  28548  H         83.2140  152.0780  132.9130 H     5183  MOL5183     0.2052
  28549  H         83.3310  153.5660  133.4860 H     5183  MOL5183     0.2052
  28550  O        196.3750  101.1980  277.2610 O.3   5184  MOL5184    -0.4105
  28551  H        195.9610  100.4160  277.6810 H     5184  MOL5184     0.2052
  28552  H        197.1720  100.8930  276.7540 H     5184  MOL5184     0.2052
  28553  O         86.6990   28.9000   63.9100 O.3   5185  MOL5185    -0.4105
  28554  H         87.3960   29.1410   63.2650 H     5185  MOL5185     0.2052
  28555  H         85.8550   28.7470   63.4120 H     5185  MOL5185     0.2052
  28556  O         58.5030  179.4560  126.9540 O.3   5186  MOL5186    -0.4105
  28557  H         59.0110  180.2340  126.6420 H     5186  MOL5186     0.2052
  28558  H         57.5950  179.4970  126.5560 H     5186  MOL5186     0.2052
  28559  O        134.5580   15.3000   51.8630 O.3   5187  MOL5187    -0.4105
  28560  H        134.5260   14.4440   52.3400 H     5187  MOL5187     0.2052
  28561  H        133.8610   15.8940   52.2440 H     5187  MOL5187     0.2052
  28562  O        155.8740  115.2190  175.2910 O.3   5188  MOL5188    -0.4105
  28563  H        155.0770  114.6870  175.0860 H     5188  MOL5188     0.2052
  28564  H        155.7270  116.1410  174.9530 H     5188  MOL5188     0.2052
  28565  O        177.6190   71.4620  127.6270 O.3   5189  MOL5189    -0.4105
  28566  H        177.1780   71.9540  126.9020 H     5189  MOL5189     0.2052
  28567  H        178.5980   71.4940  127.4720 H     5189  MOL5189     0.2052
  28568  O        142.7140  123.5010   20.3540 O.3   5190  MOL5190    -0.4105
  28569  H        142.8470  124.1540   21.0730 H     5190  MOL5190     0.2052
  28570  H        142.1840  122.7440   20.7170 H     5190  MOL5190     0.2052
  28571  O         95.3290    9.2880  217.3260 O.3   5191  MOL5191    -0.4105
  28572  H         95.4050    9.6970  218.2130 H     5191  MOL5191     0.2052
  28573  H         96.2280    9.2890  216.9050 H     5191  MOL5191     0.2052
  28574  O         57.4900   93.8820  283.7520 O.3   5192  MOL5192    -0.4105
  28575  H         57.7080   92.9760  284.0550 H     5192  MOL5192     0.2052
  28576  H         57.4440   94.4730  284.5470 H     5192  MOL5192     0.2052
  28577  O        167.1460   21.6600   95.2830 O.3   5193  MOL5193    -0.4105
  28578  H        168.0960   21.7470   95.5070 H     5193  MOL5193     0.2052
  28579  H        166.6630   22.4320   95.6790 H     5193  MOL5193     0.2052
  28580  O         24.3110   69.1620   81.9680 O.3   5194  MOL5194    -0.4105
  28581  H         24.2170   70.1370   81.9880 H     5194  MOL5194     0.2052
  28582  H         25.2780   68.9430   82.0030 H     5194  MOL5194     0.2052
  28583  O         99.8710   25.4750   86.4940 O.3   5195  MOL5195    -0.4105
  28584  H         99.3160   26.2820   86.5210 H     5195  MOL5195     0.2052
  28585  H        100.7680   25.7030   86.8530 H     5195  MOL5195     0.2052
  28586  O          6.6310   28.7790    0.7850 O.3   5196  MOL5196    -0.4105
  28587  H          6.0190   29.3960    1.2390 H     5196  MOL5196     0.2052
  28588  H          7.4730   28.7360    1.3080 H     5196  MOL5196     0.2052
  28589  O         89.6910   97.3250   28.1450 O.3   5197  MOL5197    -0.4105
  28590  H         88.7130   97.3350   28.0830 H     5197  MOL5197     0.2052
  28591  H         90.0400   96.7160   27.4430 H     5197  MOL5197     0.2052
  28592  O         10.0230   41.9980  101.6770 O.3   5198  MOL5198    -0.4105
  28593  H          9.0730   41.9120  101.9010 H     5198  MOL5198     0.2052
  28594  H         10.2780   41.2300  101.1020 H     5198  MOL5198     0.2052
  28595  O         78.9240  126.1580   56.8740 O.3   5199  MOL5199    -0.4105
  28596  H         78.2410  126.8590   56.9370 H     5199  MOL5199     0.2052
  28597  H         79.5540  126.2700   57.6330 H     5199  MOL5199     0.2052
  28598  O         69.6050   30.5870  223.4440 O.3   5200  MOL5200    -0.4105
  28599  H         69.8480   31.5290  223.5580 H     5200  MOL5200     0.2052
  28600  H         70.4380   30.0480  223.4520 H     5200  MOL5200     0.2052
  28601  O        103.6760   43.4490  223.7210 O.3   5201  MOL5201    -0.4105
  28602  H        103.4800   43.8060  222.8300 H     5201  MOL5201     0.2052
  28603  H        103.0540   42.6970  223.8980 H     5201  MOL5201     0.2052
  28604  O        174.4050   88.1370   26.3790 O.3   5202  MOL5202    -0.4105
  28605  H        175.3580   87.9090   26.3780 H     5202  MOL5202     0.2052
  28606  H        174.3230   89.1260   26.3790 H     5202  MOL5202     0.2052
  28607  O        155.8250   76.0620  157.4210 O.3   5203  MOL5203    -0.4105
  28608  H        156.3230   76.9060  157.4420 H     5203  MOL5203     0.2052
  28609  H        156.4700   75.3170  157.5340 H     5203  MOL5203     0.2052
  28610  O         95.5450   67.2580  275.1900 O.3   5204  MOL5204    -0.4105
  28611  H         96.3040   67.3770  274.5830 H     5204  MOL5204     0.2052
  28612  H         95.5120   68.0370  275.8040 H     5204  MOL5204     0.2052
  28613  O         43.4720  191.3060  172.9630 O.3   5205  MOL5205    -0.4105
  28614  H         42.8630  191.1030  172.2230 H     5205  MOL5205     0.2052
  28615  H         43.9440  192.1530  172.7540 H     5205  MOL5205     0.2052
  28616  O        101.9790   16.4210  109.2580 O.3   5206  MOL5206    -0.4105
  28617  H        102.8970   16.0910  109.1670 H     5206  MOL5206     0.2052
  28618  H        102.0170   17.3600  109.5760 H     5206  MOL5206     0.2052
  28619  O        184.2240  110.4180   18.0730 O.3   5207  MOL5207    -0.4105
  28620  H        183.4750  111.0490   18.0330 H     5207  MOL5207     0.2052
  28621  H        185.0280  110.8670   17.7030 H     5207  MOL5207     0.2052
  28622  O        124.1170   24.8400  174.0800 O.3   5208  MOL5208    -0.4105
  28623  H        124.8370   24.1850  174.1880 H     5208  MOL5208     0.2052
  28624  H        124.5260   25.7390  173.9900 H     5208  MOL5208     0.2052
  28625  O        166.5510   64.7980  259.9170 O.3   5209  MOL5209    -0.4105
  28626  H        166.4960   64.1080  259.2240 H     5209  MOL5209     0.2052
  28627  H        165.6980   65.3060  259.9180 H     5209  MOL5209     0.2052
  28628  O        114.9750  120.1620  280.8420 O.3   5210  MOL5210    -0.4105
  28629  H        114.0400  120.2930  280.5780 H     5210  MOL5210     0.2052
  28630  H        115.0500  119.2810  281.2910 H     5210  MOL5210     0.2052
  28631  O        175.4090   62.0620  284.6940 O.3   5211  MOL5211    -0.4105
  28632  H        175.4100   62.9410  285.1270 H     5211  MOL5211     0.2052
  28633  H        174.8890   62.1310  283.8520 H     5211  MOL5211     0.2052
  28634  O        108.8050  158.3730  217.4770 O.3   5212  MOL5212    -0.4105
  28635  H        108.1040  159.0340  217.6570 H     5212  MOL5212     0.2052
  28636  H        109.6570  158.8580  217.3230 H     5212  MOL5212     0.2052
  28637  O        182.4660  164.8170   22.8680 O.3   5213  MOL5213    -0.4105
  28638  H        183.1840  164.8650   22.2020 H     5213  MOL5213     0.2052
  28639  H        182.4140  163.8830   23.2000 H     5213  MOL5213     0.2052
  28640  O         47.5670  189.1200   63.0680 O.3   5214  MOL5214    -0.4105
  28641  H         47.3420  189.8540   62.4580 H     5214  MOL5214     0.2052
  28642  H         48.3220  189.4130   63.6400 H     5214  MOL5214     0.2052
  28643  O         92.0580   89.0650  194.4560 O.3   5215  MOL5215    -0.4105
  28644  H         91.4080   89.0720  193.7210 H     5215  MOL5215     0.2052
  28645  H         91.7510   89.7070  195.1470 H     5215  MOL5215     0.2052
  28646  O        155.2570   25.2070  136.8550 O.3   5216  MOL5216    -0.4105
  28647  H        155.8260   24.5660  136.3810 H     5216  MOL5216     0.2052
  28648  H        154.3100   24.9560  136.6990 H     5216  MOL5216     0.2052
  28649  O         34.6390  161.6660  117.9210 O.3   5217  MOL5217    -0.4105
  28650  H         33.8370  161.2720  118.3240 H     5217  MOL5217     0.2052
  28651  H         35.2970  161.8390  118.6440 H     5217  MOL5217     0.2052
  28652  O        153.3180  175.9000   25.1690 O.3   5218  MOL5218    -0.4105
  28653  H        154.0530  175.2520   25.1800 H     5218  MOL5218     0.2052
  28654  H        152.7550  175.7170   24.3730 H     5218  MOL5218     0.2052
  28655  O         87.2560   11.8330  193.9010 O.3   5219  MOL5219    -0.4105
  28656  H         88.1650   12.2000  193.8870 H     5219  MOL5219     0.2052
  28657  H         86.6170   12.5820  193.7770 H     5219  MOL5219     0.2052
  28658  O         66.9090   45.3430  196.7210 O.3   5220  MOL5220    -0.4105
  28659  H         67.0400   44.8880  195.8630 H     5220  MOL5220     0.2052
  28660  H         67.1680   46.2950  196.6110 H     5220  MOL5220     0.2052
  28661  O        187.8280   50.0650  134.7010 O.3   5221  MOL5221    -0.4105
  28662  H        188.3080   50.7950  134.2570 H     5221  MOL5221     0.2052
  28663  H        188.4910   49.3790  134.9740 H     5221  MOL5221     0.2052
  28664  O        190.5540  159.9530  177.1270 O.3   5222  MOL5222    -0.4105
  28665  H        190.5040  160.7090  176.5060 H     5222  MOL5222     0.2052
  28666  H        190.4990  160.3070  178.0530 H     5222  MOL5222     0.2052
  28667  O         90.9890   56.8860  167.4080 O.3   5223  MOL5223    -0.4105
  28668  H         90.7250   57.0420  168.3390 H     5223  MOL5223     0.2052
  28669  H         90.7410   55.9560  167.1660 H     5223  MOL5223     0.2052
  28670  O         39.3080   45.8300    6.4420 O.3   5224  MOL5224    -0.4105
  28671  H         38.9440   44.9320    6.5910 H     5224  MOL5224     0.2052
  28672  H         38.5480   46.4580    6.3290 H     5224  MOL5224     0.2052
  28673  O          8.6200  177.3020   48.0700 O.3   5225  MOL5225    -0.4105
  28674  H          9.2420  177.1060   47.3380 H     5225  MOL5225     0.2052
  28675  H          8.9350  176.8240   48.8800 H     5225  MOL5225     0.2052
  28676  O        179.7470  118.6260  135.3370 O.3   5226  MOL5226    -0.4105
  28677  H        178.8350  118.9830  135.3460 H     5226  MOL5226     0.2052
  28678  H        180.3580  119.3240  135.6900 H     5226  MOL5226     0.2052
  28679  O        138.0560   77.1180  203.9760 O.3   5227  MOL5227    -0.4105
  28680  H        138.8130   77.4720  203.4650 H     5227  MOL5227     0.2052
  28681  H        137.5920   76.4440  203.4160 H     5227  MOL5227     0.2052
  28682  O         95.9890  149.1240  191.5540 O.3   5228  MOL5228    -0.4105
  28683  H         95.9240  150.0850  191.3700 H     5228  MOL5228     0.2052
  28684  H         96.9280  148.8420  191.4010 H     5228  MOL5228     0.2052
  28685  O        142.9340  155.8030  144.5290 O.3   5229  MOL5229    -0.4105
  28686  H        142.3650  155.2720  143.9330 H     5229  MOL5229     0.2052
  28687  H        142.5800  155.7200  145.4520 H     5229  MOL5229     0.2052
  28688  O        195.9750  170.8700  289.6660 O.3   5230  MOL5230    -0.4105
  28689  H        195.5270  170.1080  290.0910 H     5230  MOL5230     0.2052
  28690  H        195.4290  171.1570  288.8890 H     5230  MOL5230     0.2052
  28691  O        179.3330  125.2790  286.8280 O.3   5231  MOL5231    -0.4105
  28692  H        179.5830  125.9830  287.4630 H     5231  MOL5231     0.2052
  28693  H        179.6330  124.4080  287.1970 H     5231  MOL5231     0.2052
  28694  O         23.2390   17.7720  298.7640 O.3   5232  MOL5232    -0.4105
  28695  H         22.4230   18.2870  298.9370 H     5232  MOL5232     0.2052
  28696  H         23.9740   18.4100  298.5720 H     5232  MOL5232     0.2052
  28697  O         83.6070  149.6240   45.8190 O.3   5233  MOL5233    -0.4105
  28698  H         83.6430  150.0850   44.9550 H     5233  MOL5233     0.2052
  28699  H         82.6870  149.2730   45.9450 H     5233  MOL5233     0.2052
  28700  O        126.7050  155.8820  292.4430 O.3   5234  MOL5234    -0.4105
  28701  H        127.6680  155.9130  292.6210 H     5234  MOL5234     0.2052
  28702  H        126.4150  154.9330  292.4680 H     5234  MOL5234     0.2052
  28703  O         38.1500  134.5470  251.1940 O.3   5235  MOL5235    -0.4105
  28704  H         37.5550  134.0860  251.8220 H     5235  MOL5235     0.2052
  28705  H         39.0410  134.1120  251.2350 H     5235  MOL5235     0.2052
  28706  O        175.5400   42.1270  226.3650 O.3   5236  MOL5236    -0.4105
  28707  H        175.6880   41.2490  225.9570 H     5236  MOL5236     0.2052
  28708  H        174.6170   42.1490  226.7290 H     5236  MOL5236     0.2052
  28709  O         84.7900   97.0210   51.9780 O.3   5237  MOL5237    -0.4105
  28710  H         85.3470   97.8270   52.0050 H     5237  MOL5237     0.2052
  28711  H         83.8380   97.3010   51.9930 H     5237  MOL5237     0.2052
  28712  O          5.6110   81.4890  240.0410 O.3   5238  MOL5238    -0.4105
  28713  H          5.5350   81.1170  239.1370 H     5238  MOL5238     0.2052
  28714  H          6.0940   80.8320  240.6060 H     5238  MOL5238     0.2052
  28715  O         64.5320  133.2710  178.7560 O.3   5239  MOL5239    -0.4105
  28716  H         63.6580  132.9060  179.0050 H     5239  MOL5239     0.2052
  28717  H         64.4110  134.2230  178.5020 H     5239  MOL5239     0.2052
  28718  O        161.0130   75.8010  248.3080 O.3   5240  MOL5240    -0.4105
  28719  H        161.9240   75.5520  248.0470 H     5240  MOL5240     0.2052
  28720  H        160.9790   76.7860  248.4190 H     5240  MOL5240     0.2052
  28721  O        136.9260   71.0080  204.6610 O.3   5241  MOL5241    -0.4105
  28722  H        136.8740   70.1220  204.2460 H     5241  MOL5241     0.2052
  28723  H        137.7960   71.0800  205.1320 H     5241  MOL5241     0.2052
  28724  O         24.5750  196.7410  146.7890 O.3   5242  MOL5242    -0.4105
  28725  H         24.7370  197.7070  146.7810 H     5242  MOL5242     0.2052
  28726  H         25.0620  196.3500  147.5590 H     5242  MOL5242     0.2052
  28727  O        153.1260   37.1640  118.8150 O.3   5243  MOL5243    -0.4105
  28728  H        153.0690   38.1010  118.5330 H     5243  MOL5243     0.2052
  28729  H        152.5890   36.6170  118.1850 H     5243  MOL5243     0.2052
  28730  O        196.8780  156.9370   27.0210 O.3   5244  MOL5244    -0.4105
  28731  H        197.1850  157.4690   26.2570 H     5244  MOL5244     0.2052
  28732  H        197.1240  157.4180   27.8530 H     5244  MOL5244     0.2052
  28733  O        159.7470  130.7140  278.5780 O.3   5245  MOL5245    -0.4105
  28734  H        159.2730  129.9630  278.1640 H     5245  MOL5245     0.2052
  28735  H        160.7220  130.5660  278.4650 H     5245  MOL5245     0.2052
  28736  O         19.5540  123.7230  262.6970 O.3   5246  MOL5246    -0.4105
  28737  H         19.0360  123.1540  262.0910 H     5246  MOL5246     0.2052
  28738  H         19.2690  123.5260  263.6270 H     5246  MOL5246     0.2052
  28739  O         71.2020  124.3800  234.0820 O.3   5247  MOL5247    -0.4105
  28740  H         70.9260  123.6100  233.5420 H     5247  MOL5247     0.2052
  28741  H         71.0520  124.1590  235.0380 H     5247  MOL5247     0.2052
  28742  O         35.3310   40.7610  205.0260 O.3   5248  MOL5248    -0.4105
  28743  H         34.5950   40.7270  204.3800 H     5248  MOL5248     0.2052
  28744  H         35.0850   40.2000  205.8070 H     5248  MOL5248     0.2052
  28745  O        176.1900   52.5720  131.1730 O.3   5249  MOL5249    -0.4105
  28746  H        175.4450   53.2080  131.2070 H     5249  MOL5249     0.2052
  28747  H        175.8140   51.6540  131.1860 H     5249  MOL5249     0.2052
  28748  O        148.6410   51.9730  134.2670 O.3   5250  MOL5250    -0.4105
  28749  H        149.0310   51.4760  133.5180 H     5250  MOL5250     0.2052
  28750  H        149.1250   52.8350  134.3530 H     5250  MOL5250     0.2052
  28751  O         11.9910   86.7970  287.0110 O.3   5251  MOL5251    -0.4105
  28752  H         11.7160   86.1920  286.2900 H     5251  MOL5251     0.2052
  28753  H         12.4270   87.5890  286.6020 H     5251  MOL5251     0.2052
  28754  O        111.7050  106.9930  185.8500 O.3   5252  MOL5252    -0.4105
  28755  H        111.6320  106.0700  186.1720 H     5252  MOL5252     0.2052
  28756  H        110.8220  107.4320  185.9630 H     5252  MOL5252     0.2052
  28757  O         68.2350  188.3320   65.3180 O.3   5253  MOL5253    -0.4105
  28758  H         67.8160  187.6130   65.8360 H     5253  MOL5253     0.2052
  28759  H         69.1710  188.0690   65.1220 H     5253  MOL5253     0.2052
  28760  O         28.3210  103.3980  178.6610 O.3   5254  MOL5254    -0.4105
  28761  H         28.8720  102.8040  179.2120 H     5254  MOL5254     0.2052
  28762  H         28.6240  104.3310  178.8110 H     5254  MOL5254     0.2052
  28763  O        141.7950   45.6980    7.1590 O.3   5255  MOL5255    -0.4105
  28764  H        140.9470   46.1850    7.2410 H     5255  MOL5255     0.2052
  28765  H        142.4260   46.2610    6.6400 H     5255  MOL5255     0.2052
  28766  O         22.2200   80.3710  225.6530 O.3   5256  MOL5256    -0.4105
  28767  H         23.0640   80.6200  226.0860 H     5256  MOL5256     0.2052
  28768  H         21.8420   81.1800  225.2210 H     5256  MOL5256     0.2052
  28769  O         44.1680   82.3060   20.8830 O.3   5257  MOL5257    -0.4105
  28770  H         43.7460   82.8820   21.5550 H     5257  MOL5257     0.2052
  28771  H         43.8550   81.3760   21.0310 H     5257  MOL5257     0.2052
  28772  O         35.1020   54.4120  240.2490 O.3   5258  MOL5258    -0.4105
  28773  H         34.8560   55.0800  239.5760 H     5258  MOL5258     0.2052
  28774  H         34.3370   54.3020  240.8720 H     5258  MOL5258     0.2052
  28775  O         37.0560  160.9970   74.4910 O.3   5259  MOL5259    -0.4105
  28776  H         36.4710  161.6720   74.0860 H     5259  MOL5259     0.2052
  28777  H         36.5330  160.1610   74.6050 H     5259  MOL5259     0.2052
  28778  O        114.2180    6.5350  160.8870 O.3   5260  MOL5260    -0.4105
  28779  H        114.5660    7.0160  160.1070 H     5260  MOL5260     0.2052
  28780  H        113.2610    6.7730  160.9960 H     5260  MOL5260     0.2052
  28781  O         10.5630  128.4730  217.1330 O.3   5261  MOL5261    -0.4105
  28782  H         10.9210  127.5940  216.8910 H     5261  MOL5261     0.2052
  28783  H         11.0740  129.1640  216.6370 H     5261  MOL5261     0.2052
  28784  O         57.6470   94.5110  163.7230 O.3   5262  MOL5262    -0.4105
  28785  H         58.1470   95.3330  163.5360 H     5262  MOL5262     0.2052
  28786  H         58.2990   93.7870  163.9130 H     5262  MOL5262     0.2052
  28787  O         52.1580  148.3080  246.0690 O.3   5263  MOL5263    -0.4105
  28788  H         52.0100  149.2160  245.7310 H     5263  MOL5263     0.2052
  28789  H         51.4190  147.7310  245.7440 H     5263  MOL5263     0.2052
  28790  O         11.8800   58.8670  123.5190 O.3   5264  MOL5264    -0.4105
  28791  H         11.3570   59.2840  124.2360 H     5264  MOL5264     0.2052
  28792  H         12.6080   59.4900  123.2630 H     5264  MOL5264     0.2052
  28793  O        151.5060   58.5580  181.1110 O.3   5265  MOL5265    -0.4105
  28794  H        152.2190   58.8290  181.7260 H     5265  MOL5265     0.2052
  28795  H        150.7630   59.2100  181.1900 H     5265  MOL5265     0.2052
  28796  O         17.9170  153.2040  205.7710 O.3   5266  MOL5266    -0.4105
  28797  H         18.3910  152.6210  206.4010 H     5266  MOL5266     0.2052
  28798  H         18.4110  154.0620  205.7120 H     5266  MOL5266     0.2052
  28799  O        196.6970  190.4490    3.8470 O.3   5267  MOL5267    -0.4105
  28800  H        196.4010  189.9740    4.6520 H     5267  MOL5267     0.2052
  28801  H        196.2730  190.0200    3.0600 H     5267  MOL5267     0.2052
  28802  O         60.8880  151.3890  241.7920 O.3   5268  MOL5268    -0.4105
  28803  H         60.7420  150.4460  241.5690 H     5268  MOL5268     0.2052
  28804  H         61.7790  151.6560  241.4460 H     5268  MOL5268     0.2052
  28805  O        105.8600   97.4300   65.4550 O.3   5269  MOL5269    -0.4105
  28806  H        105.5690   96.5200   65.6740 H     5269  MOL5269     0.2052
  28807  H        105.1450   97.8640   64.9200 H     5269  MOL5269     0.2052
  28808  O         29.8500  198.3460   77.1380 O.3   5270  MOL5270    -0.4105
  28809  H         29.8140  198.6140   76.1960 H     5270  MOL5270     0.2052
  28810  H         30.7550  197.9830   77.3230 H     5270  MOL5270     0.2052
  28811  O        126.1590  140.8210  201.2060 O.3   5271  MOL5271    -0.4105
  28812  H        125.5710  140.3630  201.8420 H     5271  MOL5271     0.2052
  28813  H        126.8120  141.3620  201.7200 H     5271  MOL5271     0.2052
  28814  O         50.8650  132.0630  264.8840 O.3   5272  MOL5272    -0.4105
  28815  H         50.3670  131.4590  264.2930 H     5272  MOL5272     0.2052
  28816  H         50.6980  132.9950  264.5860 H     5272  MOL5272     0.2052
  28817  O         26.1100  110.7010   58.4320 O.3   5273  MOL5273    -0.4105
  28818  H         25.3220  111.2670   58.5700 H     5273  MOL5273     0.2052
  28819  H         25.8100  109.8430   58.0330 H     5273  MOL5273     0.2052
  28820  O         90.3530  190.2520  240.8920 O.3   5274  MOL5274    -0.4105
  28821  H         89.6950  190.9680  241.0090 H     5274  MOL5274     0.2052
  28822  H         89.8920  189.3820  241.0210 H     5274  MOL5274     0.2052
  28823  O        114.4870   19.8570  172.1930 O.3   5275  MOL5275    -0.4105
  28824  H        113.9090   20.2890  171.5300 H     5275  MOL5275     0.2052
  28825  H        115.1790   19.3360  171.7090 H     5275  MOL5275     0.2052
  28826  O         22.0500  186.9030  245.5540 O.3   5276  MOL5276    -0.4105
  28827  H         21.1120  186.7770  245.2990 H     5276  MOL5276     0.2052
  28828  H         22.3900  186.0450  245.9190 H     5276  MOL5276     0.2052
  28829  O          9.2050  182.7770  102.5880 O.3   5277  MOL5277    -0.4105
  28830  H          8.9740  183.7280  102.6450 H     5277  MOL5277     0.2052
  28831  H         10.1360  182.6640  102.9130 H     5277  MOL5277     0.2052
  28832  O        161.8600   56.1780   90.2650 O.3   5278  MOL5278    -0.4105
  28833  H        162.6000   55.9880   90.8790 H     5278  MOL5278     0.2052
  28834  H        161.2250   55.4170   90.2980 H     5278  MOL5278     0.2052
  28835  O        192.0050   31.5940   35.9250 O.3   5279  MOL5279    -0.4105
  28836  H        191.1380   31.1670   36.0880 H     5279  MOL5279     0.2052
  28837  H        191.9260   32.5550   36.1590 H     5279  MOL5279     0.2052
  28838  O        141.3960  138.8810  250.9980 O.3   5280  MOL5280    -0.4105
  28839  H        141.6580  139.3260  251.8310 H     5280  MOL5280     0.2052
  28840  H        141.4140  137.9010  251.1500 H     5280  MOL5280     0.2052
  28841  O         46.3260   50.2050   19.5180 O.3   5281  MOL5281    -0.4105
  28842  H         46.5390   49.3160   19.1630 H     5281  MOL5281     0.2052
  28843  H         45.4930   50.1330   20.0540 H     5281  MOL5281     0.2052
  28844  O        143.5050  189.8430  181.7800 O.3   5282  MOL5282    -0.4105
  28845  H        144.0560  189.0320  181.7750 H     5282  MOL5282     0.2052
  28846  H        142.5510  189.5700  181.7850 H     5282  MOL5282     0.2052
  28847  O         59.4670   63.8570  240.5040 O.3   5283  MOL5283    -0.4105
  28848  H         60.1140   63.8510  241.2400 H     5283  MOL5283     0.2052
  28849  H         58.5800   64.1080  240.8730 H     5283  MOL5283     0.2052
  28850  O        167.8430    9.4390   53.9430 O.3   5284  MOL5284    -0.4105
  28851  H        168.8030    9.2420   53.9410 H     5284  MOL5284     0.2052
  28852  H        167.3810    8.7260   54.4550 H     5284  MOL5284     0.2052
  28853  O         68.3620   69.9430  277.2880 O.3   5285  MOL5285    -0.4105
  28854  H         67.6940   69.2280  277.3250 H     5285  MOL5285     0.2052
  28855  H         67.9110   70.7750  276.9890 H     5285  MOL5285     0.2052
  28856  O        197.7460   22.7350   12.1290 O.3   5286  MOL5286    -0.4105
  28857  H        197.1180   23.1770   12.7380 H     5286  MOL5286     0.2052
  28858  H        198.2910   23.4350   11.6840 H     5286  MOL5286     0.2052
  28859  O         92.4930   15.2690  137.1810 O.3   5287  MOL5287    -0.4105
  28860  H         92.1000   15.5370  138.0380 H     5287  MOL5287     0.2052
  28861  H         93.2800   14.6930  137.3670 H     5287  MOL5287     0.2052
  28862  O          0.9760  152.3790  185.3330 O.3   5288  MOL5288    -0.4105
  28863  H          1.4900  151.6430  185.7260 H     5288  MOL5288     0.2052
  28864  H          0.0120  152.2030  185.4890 H     5288  MOL5288     0.2052
  28865  O        117.0510  185.8310  286.6200 O.3   5289  MOL5289    -0.4105
  28866  H        117.1410  184.8690  286.4550 H     5289  MOL5289     0.2052
  28867  H        117.9610  186.2180  286.7020 H     5289  MOL5289     0.2052
  28868  O         48.3340  138.9150  179.6720 O.3   5290  MOL5290    -0.4105
  28869  H         47.9660  138.0120  179.7730 H     5290  MOL5290     0.2052
  28870  H         49.2460  138.9250  180.0630 H     5290  MOL5290     0.2052
  28871  O         59.6280  113.5880  225.0100 O.3   5291  MOL5291    -0.4105
  28872  H         58.7960  114.0620  225.2210 H     5291  MOL5291     0.2052
  28873  H         59.4030  112.6440  224.8010 H     5291  MOL5291     0.2052
  28874  O         97.6240   45.9030  191.9750 O.3   5292  MOL5292    -0.4105
  28875  H         97.7950   45.0030  192.3250 H     5292  MOL5292     0.2052
  28876  H         97.1870   46.4360  192.6890 H     5292  MOL5292     0.2052
  28877  O        187.2190   37.2540  101.2010 O.3   5293  MOL5293    -0.4105
  28878  H        188.0780   37.6670  101.4270 H     5293  MOL5293     0.2052
  28879  H        187.3940   36.4740  100.6130 H     5293  MOL5293     0.2052
  28880  O         57.1400  190.9550  118.6580 O.3   5294  MOL5294    -0.4105
  28881  H         56.2280  191.3130  118.6440 H     5294  MOL5294     0.2052
  28882  H         57.1610  190.1820  119.2800 H     5294  MOL5294     0.2052
  28883  O         86.5920   83.5780  289.1940 O.3   5295  MOL5295    -0.4105
  28884  H         86.3960   82.6190  289.1590 H     5295  MOL5295     0.2052
  28885  H         87.4700   83.7310  288.7560 H     5295  MOL5295     0.2052
  28886  O         34.8680  173.4840  225.2230 O.3   5296  MOL5296    -0.4105
  28887  H         35.6030  173.2040  225.8080 H     5296  MOL5296     0.2052
  28888  H         35.0210  174.4300  224.9640 H     5296  MOL5296     0.2052
  28889  O        102.8900   98.7710  259.3640 O.3   5297  MOL5297    -0.4105
  28890  H        102.4570   97.9020  259.2300 H     5297  MOL5297     0.2052
  28891  H        103.4800   98.9470  258.5860 H     5297  MOL5297     0.2052
  28892  O         57.9820  127.3510    1.3860 O.3   5298  MOL5298    -0.4105
  28893  H         58.3660  128.2120    1.1190 H     5298  MOL5298     0.2052
  28894  H         57.4110  127.0230    0.6440 H     5298  MOL5298     0.2052
  28895  O         45.7640  144.4660  153.7570 O.3   5299  MOL5299    -0.4105
  28896  H         45.9220  143.7980  153.0590 H     5299  MOL5299     0.2052
  28897  H         45.3770  144.0060  154.5460 H     5299  MOL5299     0.2052
  28898  O         13.0930   96.9130  242.9550 O.3   5300  MOL5300    -0.4105
  28899  H         12.5810   96.0900  243.1010 H     5300  MOL5300     0.2052
  28900  H         14.0500   96.7180  243.1300 H     5300  MOL5300     0.2052
  28901  O        193.1700   29.5600   80.6550 O.3   5301  MOL5301    -0.4105
  28902  H        192.6680   28.7180   80.6660 H     5301  MOL5301     0.2052
  28903  H        194.0650   29.3830   80.2660 H     5301  MOL5301     0.2052
  28904  O        126.1480  163.7240   88.5430 O.3   5302  MOL5302    -0.4105
  28905  H        126.6100  162.8600   88.5080 H     5302  MOL5302     0.2052
  28906  H        126.8150  164.4390   88.3740 H     5302  MOL5302     0.2052
  28907  O         11.6810  121.4480  255.4410 O.3   5303  MOL5303    -0.4105
  28908  H         10.7250  121.5340  255.2430 H     5303  MOL5303     0.2052
  28909  H         12.0940  122.3480  255.3720 H     5303  MOL5303     0.2052
  28910  O         24.9810  100.6320   65.2050 O.3   5304  MOL5304    -0.4105
  28911  H         25.2130   99.9110   64.5830 H     5304  MOL5304     0.2052
  28912  H         25.4670  100.4760   66.0560 H     5304  MOL5304     0.2052
  28913  O         76.9620  187.6530  159.4690 O.3   5305  MOL5305    -0.4105
  28914  H         76.0540  187.9580  159.6750 H     5305  MOL5305     0.2052
  28915  H         76.8960  186.8750  158.8550 H     5305  MOL5305     0.2052
  28916  O         56.5870  176.4010  225.9220 O.3   5306  MOL5306    -0.4105
  28917  H         57.5320  176.5690  225.7280 H     5306  MOL5306     0.2052
  28918  H         56.1050  177.2680  225.8950 H     5306  MOL5306     0.2052
  28919  O         26.7560   11.6020  160.4990 O.3   5307  MOL5307    -0.4105
  28920  H         27.6600   11.5570  160.1210 H     5307  MOL5307     0.2052
  28921  H         26.2920   12.3840  160.1000 H     5307  MOL5307     0.2052
  28922  O         71.8250   18.2570   65.5290 O.3   5308  MOL5308    -0.4105
  28923  H         71.5800   18.9400   66.1870 H     5308  MOL5308     0.2052
  28924  H         72.1300   17.4500   66.0180 H     5308  MOL5308     0.2052
  28925  O        130.7540   32.9600   48.6560 O.3   5309  MOL5309    -0.4105
  28926  H        130.2600   33.7980   48.7790 H     5309  MOL5309     0.2052
  28927  H        130.1120   32.2070   48.7320 H     5309  MOL5309     0.2052
  28928  O        159.5450  169.2370  257.2490 O.3   5310  MOL5310    -0.4105
  28929  H        159.8890  169.2310  256.3320 H     5310  MOL5310     0.2052
  28930  H        159.6500  170.1530  257.6140 H     5310  MOL5310     0.2052
  28931  O        149.2360  186.9940  139.4280 O.3   5311  MOL5311    -0.4105
  28932  H        149.3440  187.1560  140.3890 H     5311  MOL5311     0.2052
  28933  H        148.4350  187.4910  139.1180 H     5311  MOL5311     0.2052
  28934  O        156.3220   38.7490  133.9070 O.3   5312  MOL5312    -0.4105
  28935  H        155.8310   39.5700  134.1200 H     5312  MOL5312     0.2052
  28936  H        155.6660   38.0100  133.8170 H     5312  MOL5312     0.2052
  28937  O        118.6940  194.2190   28.2850 O.3   5313  MOL5313    -0.4105
  28938  H        118.3800  194.7710   27.5380 H     5313  MOL5313     0.2052
  28939  H        117.9230  193.7040   28.6360 H     5313  MOL5313     0.2052
  28940  O         18.9600  153.7790  129.5820 O.3   5314  MOL5314    -0.4105
  28941  H         19.3280  153.6390  130.4800 H     5314  MOL5314     0.2052
  28942  H         18.7970  154.7500  129.4610 H     5314  MOL5314     0.2052
  28943  O         31.0260   90.1220  296.8660 O.3   5315  MOL5315    -0.4105
  28944  H         30.3250   90.8050  296.8270 H     5315  MOL5315     0.2052
  28945  H         30.6960   89.3100  296.4010 H     5315  MOL5315     0.2052
  28946  O        137.7600  104.5530  170.9310 O.3   5316  MOL5316    -0.4105
  28947  H        138.6290  104.2210  170.6220 H     5316  MOL5316     0.2052
  28948  H        137.0490  104.0440  170.4610 H     5316  MOL5316     0.2052
  28949  O         27.3290  129.0360    6.7330 O.3   5317  MOL5317    -0.4105
  28950  H         26.4410  128.7440    7.0300 H     5317  MOL5317     0.2052
  28951  H         27.6470  128.4040    6.0370 H     5317  MOL5317     0.2052
  28952  O        180.6530   47.0130   87.6220 O.3   5318  MOL5318    -0.4105
  28953  H        180.4710   47.9620   87.7850 H     5318  MOL5318     0.2052
  28954  H        180.3050   46.4940   88.3930 H     5318  MOL5318     0.2052
  28955  O        191.8200    8.0030  173.1620 O.3   5319  MOL5319    -0.4105
  28956  H        192.5390    7.5180  172.7050 H     5319  MOL5319     0.2052
  28957  H        191.0580    7.3800  173.2890 H     5319  MOL5319     0.2052
  28958  O        128.3940   15.6120  123.5310 O.3   5320  MOL5320    -0.4105
  28959  H        127.6670   16.1570  123.1650 H     5320  MOL5320     0.2052
  28960  H        128.8230   16.1200  124.2670 H     5320  MOL5320     0.2052
  28961  O        170.4940   91.2100   61.4860 O.3   5321  MOL5321    -0.4105
  28962  H        170.5760   92.0460   60.9790 H     5321  MOL5321     0.2052
  28963  H        169.9140   91.3800   62.2730 H     5321  MOL5321     0.2052
  28964  O        135.2060  151.4070   20.2410 O.3   5322  MOL5322    -0.4105
  28965  H        136.0210  151.3060   19.7060 H     5322  MOL5322     0.2052
  28966  H        134.6480  150.5960   20.1130 H     5322  MOL5322     0.2052
  28967  O         23.4650   91.5270  177.2160 O.3   5323  MOL5323    -0.4105
  28968  H         22.6560   91.5390  176.6630 H     5323  MOL5323     0.2052
  28969  H         23.8200   92.4530  177.2670 H     5323  MOL5323     0.2052
  28970  O        182.7510  149.8760  296.8820 O.3   5324  MOL5324    -0.4105
  28971  H        183.5380  149.5760  296.3810 H     5324  MOL5324     0.2052
  28972  H        182.2580  149.0730  297.1950 H     5324  MOL5324     0.2052
  28973  O        197.3720  197.4380  283.9880 O.3   5325  MOL5325    -0.4105
  28974  H        197.5170  198.2900  283.5270 H     5325  MOL5325     0.2052
  28975  H        198.2580  197.0240  284.1610 H     5325  MOL5325     0.2052
  28976  O        173.6500   81.4230  109.0600 O.3   5326  MOL5326    -0.4105
  28977  H        173.8240   81.9500  108.2520 H     5326  MOL5326     0.2052
  28978  H        172.6680   81.3350  109.1680 H     5326  MOL5326     0.2052
  28979  O        111.9040    7.4820  265.2690 O.3   5327  MOL5327    -0.4105
  28980  H        110.9850    7.3860  264.9430 H     5327  MOL5327     0.2052
  28981  H        111.9020    8.1280  266.0220 H     5327  MOL5327     0.2052
  28982  O        164.8170  110.9930  112.5080 O.3   5328  MOL5328    -0.4105
  28983  H        165.4600  110.6280  111.8640 H     5328  MOL5328     0.2052
  28984  H        165.2790  111.6820  113.0520 H     5328  MOL5328     0.2052
  28985  O        160.3490   31.3180   58.4190 O.3   5329  MOL5329    -0.4105
  28986  H        161.3080   31.1140   58.4140 H     5329  MOL5329     0.2052
  28987  H        160.2420   32.2990   58.5210 H     5329  MOL5329     0.2052
  28988  O         89.9690  126.9430   20.8750 O.3   5330  MOL5330    -0.4105
  28989  H         89.2320  127.3560   21.3720 H     5330  MOL5330     0.2052
  28990  H         90.5200  127.6670   20.4780 H     5330  MOL5330     0.2052
  28991  O        116.6230  158.7300   64.8390 O.3   5331  MOL5331    -0.4105
  28992  H        115.8150  158.8600   64.2990 H     5331  MOL5331     0.2052
  28993  H        116.4900  157.9270   65.4080 H     5331  MOL5331     0.2052
  28994  O         32.3110   28.5410  285.4900 O.3   5332  MOL5332    -0.4105
  28995  H         32.3330   29.5020  285.6820 H     5332  MOL5332     0.2052
  28996  H         33.2470   28.2130  285.4420 H     5332  MOL5332     0.2052
  28997  O         39.7550   54.8310  271.3270 O.3   5333  MOL5333    -0.4105
  28998  H         39.5990   54.8790  270.3600 H     5333  MOL5333     0.2052
  28999  H         40.4290   54.1240  271.4980 H     5333  MOL5333     0.2052
  29000  O         35.5040   74.2680  250.7520 O.3   5334  MOL5334    -0.4105
  29001  H         36.3310   74.7900  250.8140 H     5334  MOL5334     0.2052
  29002  H         35.7330   73.3640  250.4110 H     5334  MOL5334     0.2052
  29003  O         92.2880  112.6080   27.9800 O.3   5335  MOL5335    -0.4105
  29004  H         92.2780  112.7770   28.9450 H     5335  MOL5335     0.2052
  29005  H         93.0900  112.0630   27.7680 H     5335  MOL5335     0.2052
  29006  O         82.9680  126.3750  205.2570 O.3   5336  MOL5336    -0.4105
  29007  H         83.8150  126.5290  204.7890 H     5336  MOL5336     0.2052
  29008  H         82.7310  127.2030  205.7510 H     5336  MOL5336     0.2052
  29009  O         41.1610   24.2830  263.5820 O.3   5337  MOL5337    -0.4105
  29010  H         40.7300   23.7980  264.3170 H     5337  MOL5337     0.2052
  29011  H         41.0950   23.7270  262.7630 H     5337  MOL5337     0.2052
  29012  O          4.9080   64.9460   81.7810 O.3   5338  MOL5338    -0.4105
  29013  H          4.8670   63.9720   81.6750 H     5338  MOL5338     0.2052
  29014  H          5.6660   65.2850   81.2370 H     5338  MOL5338     0.2052
  29015  O        160.5640   49.9190  161.9710 O.3   5339  MOL5339    -0.4105
  29016  H        160.7130   50.8860  161.9240 H     5339  MOL5339     0.2052
  29017  H        161.3840   49.4620  161.6500 H     5339  MOL5339     0.2052
  29018  O        159.0270   56.3730  239.1640 O.3   5340  MOL5340    -0.4105
  29019  H        159.8070   55.7830  239.2200 H     5340  MOL5340     0.2052
  29020  H        158.8930   56.7960  240.0520 H     5340  MOL5340     0.2052
  29021  O        191.8660  151.0290  251.6960 O.3   5341  MOL5341    -0.4105
  29022  H        191.1490  150.6960  252.2750 H     5341  MOL5341     0.2052
  29023  H        192.2900  150.2510  251.2490 H     5341  MOL5341     0.2052
  29024  O         54.4330   44.2240  286.3230 O.3   5342  MOL5342    -0.4105
  29025  H         54.8010   44.1510  287.2290 H     5342  MOL5342     0.2052
  29026  H         54.6620   43.3950  285.8280 H     5342  MOL5342     0.2052
  29027  O         92.1870  164.5330  142.6010 O.3   5343  MOL5343    -0.4105
  29028  H         91.4740  164.1630  142.0400 H     5343  MOL5343     0.2052
  29029  H         92.2820  163.9570  143.4030 H     5343  MOL5343     0.2052
  29030  O        104.7160  100.5380  286.5560 O.3   5344  MOL5344    -0.4105
  29031  H        103.8960  100.0020  286.5840 H     5344  MOL5344     0.2052
  29032  H        104.7420  101.0190  285.6890 H     5344  MOL5344     0.2052
  29033  O         17.4280  101.0000  277.0930 O.3   5345  MOL5345    -0.4105
  29034  H         17.3300  101.9370  276.8250 H     5345  MOL5345     0.2052
  29035  H         18.3960  100.7980  277.1690 H     5345  MOL5345     0.2052
  29036  O        195.1570  128.7390  175.1850 O.3   5346  MOL5346    -0.4105
  29037  H        195.6030  129.5000  174.7580 H     5346  MOL5346     0.2052
  29038  H        194.1790  128.9130  175.1850 H     5346  MOL5346     0.2052
  29039  O         50.7390   54.8030   24.7870 O.3   5347  MOL5347    -0.4105
  29040  H         50.0340   55.2680   25.2840 H     5347  MOL5347     0.2052
  29041  H         51.4890   55.4370   24.6470 H     5347  MOL5347     0.2052
  29042  O         74.3580    4.4910   44.0070 O.3   5348  MOL5348    -0.4105
  29043  H         73.5480    5.0420   44.0090 H     5348  MOL5348     0.2052
  29044  H         74.0840    3.5370   44.0140 H     5348  MOL5348     0.2052
  29045  O         53.5280  171.0230  200.8010 O.3   5349  MOL5349    -0.4105
  29046  H         52.6320  170.7270  201.0650 H     5349  MOL5349     0.2052
  29047  H         53.6350  171.9700  201.0760 H     5349  MOL5349     0.2052
  29048  O        139.0430  164.1580  158.0230 O.3   5350  MOL5350    -0.4105
  29049  H        139.0940  165.0990  157.7530 H     5350  MOL5350     0.2052
  29050  H        139.3950  163.6030  157.2800 H     5350  MOL5350     0.2052
  29051  O         32.8950   80.4390  285.3080 O.3   5351  MOL5351    -0.4105
  29052  H         33.6910   80.9070  285.6350 H     5351  MOL5351     0.2052
  29053  H         32.7330   80.7190  284.3700 H     5351  MOL5351     0.2052
  29054  O        193.2240  143.2100  148.0180 O.3   5352  MOL5352    -0.4105
  29055  H        194.0730  143.7000  148.0180 H     5352  MOL5352     0.2052
  29056  H        193.4240  142.2430  147.9210 H     5352  MOL5352     0.2052
  29057  O         86.1890    4.8990   76.3600 O.3   5353  MOL5353    -0.4105
  29058  H         85.5270    4.6310   77.0300 H     5353  MOL5353     0.2052
  29059  H         87.0830    4.9080   76.7910 H     5353  MOL5353     0.2052
  29060  O         76.0730   77.7070  166.9150 O.3   5354  MOL5354    -0.4105
  29061  H         76.8430   78.2800  167.1130 H     5354  MOL5354     0.2052
  29062  H         75.3390   78.2800  166.5730 H     5354  MOL5354     0.2052
  29063  O        173.8810   87.2780  137.9510 O.3   5355  MOL5355    -0.4105
  29064  H        174.5510   87.9490  138.1990 H     5355  MOL5355     0.2052
  29065  H        173.2190   87.2130  138.6870 H     5355  MOL5355     0.2052
  29066  O        173.1440  177.9270   43.8310 O.3   5356  MOL5356    -0.4105
  29067  H        172.4680  177.6840   44.4990 H     5356  MOL5356     0.2052
  29068  H        173.6300  177.1030   43.5690 H     5356  MOL5356     0.2052
  29069  O         92.5430  119.6450    7.8330 O.3   5357  MOL5357    -0.4105
  29070  H         91.9420  119.4260    8.5760 H     5357  MOL5357     0.2052
  29071  H         92.9590  120.5260    8.0200 H     5357  MOL5357     0.2052
  29072  O        198.5070  184.7320  209.5710 O.3   5358  MOL5358    -0.4105
  29073  H        199.3690  184.5060  209.1640 H     5358  MOL5358     0.2052
  29074  H        198.3300  185.6950  209.4100 H     5358  MOL5358     0.2052
  29075  O          1.0340    5.6940  181.2940 O.3   5359  MOL5359    -0.4105
  29076  H          1.2740    6.6140  181.5340 H     5359  MOL5359     0.2052
  29077  H          0.0750    5.5570  181.5090 H     5359  MOL5359     0.2052
  29078  O        191.8110   82.9890   64.1130 O.3   5360  MOL5360    -0.4105
  29079  H        191.5750   83.0500   63.1640 H     5360  MOL5360     0.2052
  29080  H        192.7550   83.2760   64.2180 H     5360  MOL5360     0.2052
  29081  O         32.7880   17.3660  212.9240 O.3   5361  MOL5361    -0.4105
  29082  H         33.5900   17.7990  212.5630 H     5361  MOL5361     0.2052
  29083  H         32.7110   17.6060  213.8830 H     5361  MOL5361     0.2052
  29084  O        137.4070    0.8340   96.2480 O.3   5362  MOL5362    -0.4105
  29085  H        137.9600    1.5650   96.5940 H     5362  MOL5362     0.2052
  29086  H        136.4730    1.1610   96.1690 H     5362  MOL5362     0.2052
  29087  O         87.1010  111.8180  175.7710 O.3   5363  MOL5363    -0.4105
  29088  H         88.0760  111.8640  175.6850 H     5363  MOL5363     0.2052
  29089  H         86.7060  112.5490  175.2280 H     5363  MOL5363     0.2052
  29090  O         92.3960   11.8410  207.8600 O.3   5364  MOL5364    -0.4105
  29091  H         92.8980   11.4110  207.1360 H     5364  MOL5364     0.2052
  29092  H         91.7690   11.1720  208.2420 H     5364  MOL5364     0.2052
  29093  O         99.2860  103.9670  224.7900 O.3   5365  MOL5365    -0.4105
  29094  H         98.9760  103.2820  225.4200 H     5365  MOL5365     0.2052
  29095  H         99.7100  103.5100  224.0190 H     5365  MOL5365     0.2052
  29096  O        174.7090  148.3640   85.6430 O.3   5366  MOL5366    -0.4105
  29097  H        174.8380  148.2180   86.6040 H     5366  MOL5366     0.2052
  29098  H        174.8420  149.3290   85.4550 H     5366  MOL5366     0.2052
  29099  O        143.4180   87.7530   77.6310 O.3   5367  MOL5367    -0.4105
  29100  H        143.6060   87.8060   78.5920 H     5367  MOL5367     0.2052
  29101  H        142.4670   87.4960   77.5140 H     5367  MOL5367     0.2052
  29102  O          7.2280  199.0860   90.6800 O.3   5368  MOL5368    -0.4105
  29103  H          7.5480  199.9880   90.4700 H     5368  MOL5368     0.2052
  29104  H          7.9970  198.5510   91.0050 H     5368  MOL5368     0.2052
  29105  O        173.2210   96.3050  258.9700 O.3   5369  MOL5369    -0.4105
  29106  H        174.0410   96.8390  259.0080 H     5369  MOL5369     0.2052
  29107  H        173.4580   95.3940  258.6550 H     5369  MOL5369     0.2052
  29108  O         58.0710   73.0540   23.4100 O.3   5370  MOL5370    -0.4105
  29109  H         58.5130   73.6610   24.0390 H     5370  MOL5370     0.2052
  29110  H         57.1050   73.0230   23.6360 H     5370  MOL5370     0.2052
  29111  O        135.9950  123.2070   49.9040 O.3   5371  MOL5371    -0.4105
  29112  H        136.8560  123.4470   49.5020 H     5371  MOL5371     0.2052
  29113  H        135.3940  123.9950   49.8460 H     5371  MOL5371     0.2052
  29114  O        159.5620    1.8140   24.1520 O.3   5372  MOL5372    -0.4105
  29115  H        159.5270    2.7920   24.1080 H     5372  MOL5372     0.2052
  29116  H        158.6340    1.4670   24.1030 H     5372  MOL5372     0.2052
  29117  O        148.8310  174.9560  207.5190 O.3   5373  MOL5373    -0.4105
  29118  H        148.5170  175.8400  207.2340 H     5373  MOL5373     0.2052
  29119  H        149.7800  175.0380  207.7970 H     5373  MOL5373     0.2052
  29120  O         88.2100   69.5630   20.0990 O.3   5374  MOL5374    -0.4105
  29121  H         89.1800   69.4260   20.0620 H     5374  MOL5374     0.2052
  29122  H         88.0310   70.5370   20.0280 H     5374  MOL5374     0.2052
  29123  O        168.3200   16.3200  245.6220 O.3   5375  MOL5375    -0.4105
  29124  H        168.3620   15.7630  244.8160 H     5375  MOL5375     0.2052
  29125  H        168.3690   15.7240  246.4140 H     5375  MOL5375     0.2052
  29126  O        197.7180   76.9650  148.6010 O.3   5376  MOL5376    -0.4105
  29127  H        197.6690   77.9200  148.3890 H     5376  MOL5376     0.2052
  29128  H        197.0330   76.7640  149.2900 H     5376  MOL5376     0.2052
  29129  O        175.0830  136.3880   96.1710 O.3   5377  MOL5377    -0.4105
  29130  H        175.1960  137.3570   96.0820 H     5377  MOL5377     0.2052
  29131  H        174.1110  136.1890   96.1840 H     5377  MOL5377     0.2052
  29132  O        190.2920  162.8270   12.4150 O.3   5378  MOL5378    -0.4105
  29133  H        189.7120  163.3260   13.0270 H     5378  MOL5378     0.2052
  29134  H        191.1850  163.2590   12.4120 H     5378  MOL5378     0.2052
  29135  O         51.9950   13.4280  117.7220 O.3   5379  MOL5379    -0.4105
  29136  H         52.3230   14.2860  117.3800 H     5379  MOL5379     0.2052
  29137  H         52.7790   12.8670  117.9560 H     5379  MOL5379     0.2052
  29138  O        190.0230  179.4340  133.5300 O.3   5380  MOL5380    -0.4105
  29139  H        189.8300  180.3830  133.6800 H     5380  MOL5380     0.2052
  29140  H        189.2320  178.9070  133.8150 H     5380  MOL5380     0.2052
  29141  O        157.1990  179.6940   54.6450 O.3   5381  MOL5381    -0.4105
  29142  H        156.3430  180.1640   54.7260 H     5381  MOL5381     0.2052
  29143  H        157.8790  180.3410   54.3250 H     5381  MOL5381     0.2052
  29144  O         71.3600  199.1140   17.9610 O.3   5382  MOL5382    -0.4105
  29145  H         72.2720  198.7640   18.0420 H     5382  MOL5382     0.2052
  29146  H         70.7290  198.3480   17.9960 H     5382  MOL5382     0.2052
  29147  O          1.5490   94.9380  278.6210 O.3   5383  MOL5383    -0.4105
  29148  H          2.3870   94.9160  279.1300 H     5383  MOL5383     0.2052
  29149  H          1.7730   94.9340  277.6540 H     5383  MOL5383     0.2052
  29150  O         35.1570   54.8870  272.8410 O.3   5384  MOL5384    -0.4105
  29151  H         34.6070   54.2830  273.3810 H     5384  MOL5384     0.2052
  29152  H         35.7190   54.3380  272.2340 H     5384  MOL5384     0.2052
  29153  O        159.3270  157.3350  287.5340 O.3   5385  MOL5385    -0.4105
  29154  H        159.6800  158.1420  287.1050 H     5385  MOL5385     0.2052
  29155  H        160.0220  156.9810  288.1480 H     5385  MOL5385     0.2052
  29156  O        151.4900  102.7540    7.6000 O.3   5386  MOL5386    -0.4105
  29157  H        150.9510  103.2930    6.9840 H     5386  MOL5386     0.2052
  29158  H        151.3630  101.7980    7.3690 H     5386  MOL5386     0.2052
  29159  O         86.1480  177.4030  283.7160 O.3   5387  MOL5387    -0.4105
  29160  H         85.3190  176.9100  283.8940 H     5387  MOL5387     0.2052
  29161  H         86.6170  177.5420  284.5790 H     5387  MOL5387     0.2052
  29162  O         91.8050    6.7270   53.3910 O.3   5388  MOL5388    -0.4105
  29163  H         92.0800    7.4710   52.8150 H     5388  MOL5388     0.2052
  29164  H         92.5150    6.5800   54.0680 H     5388  MOL5388     0.2052
  29165  O         63.8430    5.3940    7.9700 O.3   5389  MOL5389    -0.4105
  29166  H         64.4420    4.7270    7.5740 H     5389  MOL5389     0.2052
  29167  H         63.8890    5.3070    8.9570 H     5389  MOL5389     0.2052
  29168  O         63.2170   12.9660  160.6070 O.3   5390  MOL5390    -0.4105
  29169  H         63.8860   12.7620  161.2940 H     5390  MOL5390     0.2052
  29170  H         63.5350   12.5950  159.7440 H     5390  MOL5390     0.2052
  29171  O        182.1460   30.7080  244.2870 O.3   5391  MOL5391    -0.4105
  29172  H        181.9190   30.0370  243.6090 H     5391  MOL5391     0.2052
  29173  H        181.5310   31.4790  244.1780 H     5391  MOL5391     0.2052
  29174  O        188.0990   19.2520   41.0710 O.3   5392  MOL5392    -0.4105
  29175  H        187.7170   18.3500   41.0640 H     5392  MOL5392     0.2052
  29176  H        188.3630   19.4710   42.0020 H     5392  MOL5392     0.2052
  29177  O        103.1830  148.1610  271.9400 O.3   5393  MOL5393    -0.4105
  29178  H        103.9810  147.9330  272.4610 H     5393  MOL5393     0.2052
  29179  H        102.7040  147.3200  271.7230 H     5393  MOL5393     0.2052
  29180  O        140.9260  149.3140   48.0500 O.3   5394  MOL5394    -0.4105
  29181  H        140.6100  148.4030   47.8700 H     5394  MOL5394     0.2052
  29182  H        140.2180  149.7940   48.5540 H     5394  MOL5394     0.2052
  29183  O        152.8010   78.7900  150.3830 O.3   5395  MOL5395    -0.4105
  29184  H        152.9770   79.2320  151.2400 H     5395  MOL5395     0.2052
  29185  H        152.4650   77.8750  150.5690 H     5395  MOL5395     0.2052
  29186  O         98.1540  188.9890   35.1510 O.3   5396  MOL5396    -0.4105
  29187  H         97.4990  189.4900   34.6220 H     5396  MOL5396     0.2052
  29188  H         98.7310  188.4760   34.5270 H     5396  MOL5396     0.2052
  29189  O        105.5320  198.3700   23.5340 O.3   5397  MOL5397    -0.4105
  29190  H        104.5590  198.2590   23.5390 H     5397  MOL5397     0.2052
  29191  H        105.7350  199.3190   23.3280 H     5397  MOL5397     0.2052
  29192  O         81.9310   88.6330  254.9970 O.3   5398  MOL5398    -0.4105
  29193  H         82.6680   89.0860  255.4580 H     5398  MOL5398     0.2052
  29194  H         82.3170   87.9480  254.3920 H     5398  MOL5398     0.2052
  29195  O        137.5750   87.5000   46.2310 O.3   5399  MOL5399    -0.4105
  29196  H        137.9890   86.9410   46.9220 H     5399  MOL5399     0.2052
  29197  H        138.2980   87.9320   45.7070 H     5399  MOL5399     0.2052
  29198  O        194.2120   37.4930   91.4520 O.3   5400  MOL5400    -0.4105
  29199  H        194.6650   38.0620   92.1080 H     5400  MOL5400     0.2052
  29200  H        194.5020   36.5560   91.6000 H     5400  MOL5400     0.2052
  29201  O        195.1560   97.7780  161.5550 O.3   5401  MOL5401    -0.4105
  29202  H        196.1360   97.7930  161.5500 H     5401  MOL5401     0.2052
  29203  H        194.8320   98.7160  161.5550 H     5401  MOL5401     0.2052
  29204  O        195.0180  178.4290   42.1640 O.3   5402  MOL5402    -0.4105
  29205  H        195.9400  178.2940   41.8590 H     5402  MOL5402     0.2052
  29206  H        194.6470  179.2180   41.6920 H     5402  MOL5402     0.2052
  29207  O        199.4460   62.9500   94.5970 O.3   5403  MOL5403    -0.4105
  29208  H        200.0000   63.7210   94.8410 H     5403  MOL5403     0.2052
  29209  H        199.9570   62.1240   94.7960 H     5403  MOL5403     0.2052
  29210  O          5.3000  122.3960  258.4700 O.3   5404  MOL5404    -0.4105
  29211  H          4.7310  121.5990  258.5140 H     5404  MOL5404     0.2052
  29212  H          4.7760  123.1700  258.8010 H     5404  MOL5404     0.2052
  29213  O        108.6110  111.2070  250.4530 O.3   5405  MOL5405    -0.4105
  29214  H        109.5750  111.1630  250.6270 H     5405  MOL5405     0.2052
  29215  H        108.4160  112.0710  250.0060 H     5405  MOL5405     0.2052
  29216  O        125.9620   93.9190  280.8400 O.3   5406  MOL5406    -0.4105
  29217  H        125.4560   93.4370  280.1540 H     5406  MOL5406     0.2052
  29218  H        126.9160   93.6590  280.7630 H     5406  MOL5406     0.2052
  29219  O        101.2900  115.7360  192.0520 O.3   5407  MOL5407    -0.4105
  29220  H        100.4460  116.0790  192.4160 H     5407  MOL5407     0.2052
  29221  H        101.0870  114.9410  191.4940 H     5407  MOL5407     0.2052
  29222  O         69.1590  193.7860   13.1990 O.3   5408  MOL5408    -0.4105
  29223  H         68.5390  193.0540   12.9980 H     5408  MOL5408     0.2052
  29224  H         68.6610  194.6420   13.1350 H     5408  MOL5408     0.2052
  29225  O        187.0970   32.2150  196.2600 O.3   5409  MOL5409    -0.4105
  29226  H        187.8960   32.7820  196.2880 H     5409  MOL5409     0.2052
  29227  H        187.3610   31.2940  196.5190 H     5409  MOL5409     0.2052
  29228  O         55.9430   62.3740  231.8950 O.3   5410  MOL5410    -0.4105
  29229  H         56.5900   62.4510  231.1620 H     5410  MOL5410     0.2052
  29230  H         55.0300   62.4360  231.5110 H     5410  MOL5410     0.2052
  29231  O          0.5530  100.0790  169.1100 O.3   5411  MOL5411    -0.4105
  29232  H          0.5590   99.1190  169.3110 H     5411  MOL5411     0.2052
  29233  H          1.4870  100.4110  169.1550 H     5411  MOL5411     0.2052
  29234  O        195.6600  125.1750  144.2070 O.3   5412  MOL5412    -0.4105
  29235  H        195.7010  124.3600  144.7490 H     5412  MOL5412     0.2052
  29236  H        196.5350  125.2880  143.7510 H     5412  MOL5412     0.2052
  29237  O          1.2210  197.2830  104.2150 O.3   5413  MOL5413    -0.4105
  29238  H          0.6740  198.0960  104.2170 H     5413  MOL5413     0.2052
  29239  H          2.1760  197.5520  104.2130 H     5413  MOL5413     0.2052
  29240  O         84.7260   93.4860  239.5120 O.3   5414  MOL5414    -0.4105
  29241  H         83.9850   93.9700  239.9330 H     5414  MOL5414     0.2052
  29242  H         84.5430   92.5140  239.5830 H     5414  MOL5414     0.2052
  29243  O         35.3670   59.4010  208.7580 O.3   5415  MOL5415    -0.4105
  29244  H         34.9330   60.2800  208.7370 H     5415  MOL5415     0.2052
  29245  H         35.3450   59.0220  207.8410 H     5415  MOL5415     0.2052
  29246  O        138.1010   59.5710  196.9910 O.3   5416  MOL5416    -0.4105
  29247  H        138.8610   60.1320  197.2530 H     5416  MOL5416     0.2052
  29248  H        138.4160   58.6320  196.9280 H     5416  MOL5416     0.2052
  29249  O        125.9310  163.0250  179.2470 O.3   5417  MOL5417    -0.4105
  29250  H        125.3210  163.1780  179.9980 H     5417  MOL5417     0.2052
  29251  H        126.7640  162.6180  179.6010 H     5417  MOL5417     0.2052
  29252  O        187.8830   34.9470  257.8230 O.3   5418  MOL5418    -0.4105
  29253  H        188.3720   34.7340  257.0010 H     5418  MOL5418     0.2052
  29254  H        188.5400   35.2410  258.5070 H     5418  MOL5418     0.2052
  29255  O        189.2910  138.5810  160.3000 O.3   5419  MOL5419    -0.4105
  29256  H        189.9240  138.1340  160.9000 H     5419  MOL5419     0.2052
  29257  H        189.7630  139.3290  159.8510 H     5419  MOL5419     0.2052
  29258  O        121.0040   41.8800   56.8820 O.3   5420  MOL5420    -0.4105
  29259  H        121.8670   42.1200   57.2810 H     5420  MOL5420     0.2052
  29260  H        120.5960   42.7030   56.5060 H     5420  MOL5420     0.2052
  29261  O         36.1530   87.1740  196.5300 O.3   5421  MOL5421    -0.4105
  29262  H         36.5760   88.0580  196.5450 H     5421  MOL5421     0.2052
  29263  H         35.7510   87.0370  195.6330 H     5421  MOL5421     0.2052
  29264  O          4.6040   35.0000  216.9910 O.3   5422  MOL5422    -0.4105
  29265  H          3.6650   34.7600  216.8420 H     5422  MOL5422     0.2052
  29266  H          4.6760   35.9900  216.9870 H     5422  MOL5422     0.2052
  29267  O        108.2310  198.9040  102.4570 O.3   5423  MOL5423    -0.4105
  29268  H        107.9180  198.1490  102.9980 H     5423  MOL5423     0.2052
  29269  H        107.4390  199.4190  102.1550 H     5423  MOL5423     0.2052
  29270  O         46.7110   60.9860  237.8480 O.3   5424  MOL5424    -0.4105
  29271  H         46.5430   60.7260  238.7780 H     5424  MOL5424     0.2052
  29272  H         45.8590   61.3100  237.4570 H     5424  MOL5424     0.2052
  29273  O         91.1890   56.8670  242.5300 O.3   5425  MOL5425    -0.4105
  29274  H         91.6400   57.6890  242.8130 H     5425  MOL5425     0.2052
  29275  H         91.0870   56.8920  241.5430 H     5425  MOL5425     0.2052
  29276  O         37.8930  199.7480   96.9830 O.3   5426  MOL5426    -0.4105
  29277  H         38.1790  198.8550   96.7000 H     5426  MOL5426     0.2052
  29278  H         37.0760  199.6510   97.5380 H     5426  MOL5426     0.2052
  29279  O        119.6320   90.0060   54.4990 O.3   5427  MOL5427    -0.4105
  29280  H        118.9990   89.2620   54.4200 H     5427  MOL5427     0.2052
  29281  H        119.1180   90.8550   54.4710 H     5427  MOL5427     0.2052
  29282  O         46.2130   17.6890  198.9100 O.3   5428  MOL5428    -0.4105
  29283  H         45.8930   17.4760  199.8120 H     5428  MOL5428     0.2052
  29284  H         47.0930   17.2490  198.7800 H     5428  MOL5428     0.2052
  29285  O        162.9210  166.1450   13.4690 O.3   5429  MOL5429    -0.4105
  29286  H        161.9510  166.0100   13.5060 H     5429  MOL5429     0.2052
  29287  H        163.0940  167.1020   13.2740 H     5429  MOL5429     0.2052
  29288  O         13.8260  159.6530  196.3070 O.3   5430  MOL5430    -0.4105
  29289  H         14.3160  158.9220  195.8770 H     5430  MOL5430     0.2052
  29290  H         13.2440  160.0790  195.6250 H     5430  MOL5430     0.2052
  29291  O        157.4120  131.4470  128.3430 O.3   5431  MOL5431    -0.4105
  29292  H        158.3710  131.6520  128.3460 H     5431  MOL5431     0.2052
  29293  H        156.9210  132.2610  128.0600 H     5431  MOL5431     0.2052
  29294  O        126.0640   75.0360  233.9730 O.3   5432  MOL5432    -0.4105
  29295  H        126.9230   75.5090  233.9850 H     5432  MOL5432     0.2052
  29296  H        126.2470   74.0610  233.9990 H     5432  MOL5432     0.2052
  29297  O         53.9910  170.9440  218.6670 O.3   5433  MOL5433    -0.4105
  29298  H         53.3000  170.5230  219.2200 H     5433  MOL5433     0.2052
  29299  H         53.5850  171.7200  218.2000 H     5433  MOL5433     0.2052
  29300  O        151.8810  114.5610  253.4090 O.3   5434  MOL5434    -0.4105
  29301  H        152.3900  114.5570  254.2460 H     5434  MOL5434     0.2052
  29302  H        151.6280  113.6260  253.1950 H     5434  MOL5434     0.2052
  29303  O         26.8390   16.0010    8.8050 O.3   5435  MOL5435    -0.4105
  29304  H         27.6130   15.4300    8.6150 H     5435  MOL5435     0.2052
  29305  H         26.2290   15.5060    9.4100 H     5435  MOL5435     0.2052
  29306  O         15.6910    8.9690  207.9230 O.3   5436  MOL5436    -0.4105
  29307  H         16.0140    8.0460  207.9920 H     5436  MOL5436     0.2052
  29308  H         15.8830    9.4300  208.7800 H     5436  MOL5436     0.2052
  29309  O        120.7230  162.3850    8.4450 O.3   5437  MOL5437    -0.4105
  29310  H        120.2070  162.4690    7.6170 H     5437  MOL5437     0.2052
  29311  H        121.6750  162.5720    8.2390 H     5437  MOL5437     0.2052
  29312  O         45.1150   13.5590  121.6670 O.3   5438  MOL5438    -0.4105
  29313  H         45.8010   13.3020  122.3180 H     5438  MOL5438     0.2052
  29314  H         45.3560   13.1620  120.7900 H     5438  MOL5438     0.2052
  29315  O        169.5500   74.8000  236.6240 O.3   5439  MOL5439    -0.4105
  29316  H        169.9410   74.0170  236.1850 H     5439  MOL5439     0.2052
  29317  H        168.5690   74.7840  236.4730 H     5439  MOL5439     0.2052
  29318  O         88.0790   25.1420  234.5570 O.3   5440  MOL5440    -0.4105
  29319  H         88.8550   25.3200  235.1290 H     5440  MOL5440     0.2052
  29320  H         88.3680   24.5450  233.8190 H     5440  MOL5440     0.2052
  29321  O         25.5960   56.2660   47.9490 O.3   5441  MOL5441    -0.4105
  29322  H         26.3650   56.7340   48.3370 H     5441  MOL5441     0.2052
  29323  H         25.9330   55.4900   47.4320 H     5441  MOL5441     0.2052
  29324  O         66.0380  130.1840  277.9430 O.3   5442  MOL5442    -0.4105
  29325  H         66.8180  130.1030  277.3550 H     5442  MOL5442     0.2052
  29326  H         66.0310  131.1000  278.3250 H     5442  MOL5442     0.2052
  29327  O        154.9050   30.3420  113.9190 O.3   5443  MOL5443    -0.4105
  29328  H        155.8840   30.2930  113.9580 H     5443  MOL5443     0.2052
  29329  H        154.5460   30.0580  114.7990 H     5443  MOL5443     0.2052
  29330  O         99.4850  146.0950   58.9000 O.3   5444  MOL5444    -0.4105
  29331  H        100.4190  146.2380   59.1600 H     5444  MOL5444     0.2052
  29332  H         99.4290  145.2400   58.4010 H     5444  MOL5444     0.2052
  29333  O        140.4440   75.4420  245.5800 O.3   5445  MOL5445    -0.4105
  29334  H        139.7590   76.0340  245.9570 H     5445  MOL5445     0.2052
  29335  H        141.3330   75.8450  245.7580 H     5445  MOL5445     0.2052
  29336  O         96.0340  119.0630  170.1130 O.3   5446  MOL5446    -0.4105
  29337  H         96.2230  119.9030  169.6440 H     5446  MOL5446     0.2052
  29338  H         96.6500  118.3670  169.7660 H     5446  MOL5446     0.2052
  29339  O         37.7860   90.4750   24.2530 O.3   5447  MOL5447    -0.4105
  29340  H         37.4500   90.9540   23.4670 H     5447  MOL5447     0.2052
  29341  H         38.7770   90.5310   24.2500 H     5447  MOL5447     0.2052
  29342  O        103.1000  188.9070  226.7450 O.3   5448  MOL5448    -0.4105
  29343  H        102.5540  189.6940  226.5360 H     5448  MOL5448     0.2052
  29344  H        102.7260  188.4780  227.5580 H     5448  MOL5448     0.2052
  29345  O          3.0040  196.5930    4.2230 O.3   5449  MOL5449    -0.4105
  29346  H          2.8620  195.9560    4.9550 H     5449  MOL5449     0.2052
  29347  H          3.9550  196.5420    3.9460 H     5449  MOL5449     0.2052
  29348  O         94.1470  198.1730  172.6490 O.3   5450  MOL5450    -0.4105
  29349  H         93.5070  198.8340  172.9880 H     5450  MOL5450     0.2052
  29350  H         93.9780  198.0460  171.6800 H     5450  MOL5450     0.2052
  29351  O         20.9940   47.4140   32.6810 O.3   5451  MOL5451    -0.4105
  29352  H         20.6140   46.5970   32.2960 H     5451  MOL5451     0.2052
  29353  H         20.2830   48.1070   32.7010 H     5451  MOL5451     0.2052
  29354  O        157.4800  119.6990  147.8080 O.3   5452  MOL5452    -0.4105
  29355  H        157.4910  119.4330  148.7510 H     5452  MOL5452     0.2052
  29356  H        156.5500  119.9420  147.5640 H     5452  MOL5452     0.2052
  29357  O          9.6840  114.9690  184.8430 O.3   5453  MOL5453    -0.4105
  29358  H          9.4410  115.8960  185.0460 H     5453  MOL5453     0.2052
  29359  H          8.8490  114.4380  184.7690 H     5453  MOL5453     0.2052
  29360  O         52.9690  161.9260   82.5440 O.3   5454  MOL5454    -0.4105
  29361  H         53.8990  161.6740   82.7240 H     5454  MOL5454     0.2052
  29362  H         52.3850  161.4330   83.1770 H     5454  MOL5454     0.2052
  29363  O        175.5110  184.9960   58.7200 O.3   5455  MOL5455    -0.4105
  29364  H        175.3600  184.1220   58.3020 H     5455  MOL5455     0.2052
  29365  H        174.6350  185.4530   58.8080 H     5455  MOL5455     0.2052
  29366  O        196.5330  120.7700  215.7110 O.3   5456  MOL5456    -0.4105
  29367  H        197.1660  120.0220  215.7030 H     5456  MOL5456     0.2052
  29368  H        196.9910  121.5600  216.1000 H     5456  MOL5456     0.2052
  29369  O         51.1460   84.1100  264.5330 O.3   5457  MOL5457    -0.4105
  29370  H         50.3160   83.6930  264.2200 H     5457  MOL5457     0.2052
  29371  H         50.9560   85.0610  264.7400 H     5457  MOL5457     0.2052
  29372  O        170.7000  189.7880  265.8970 O.3   5458  MOL5458    -0.4105
  29373  H        171.5780  189.6350  265.4890 H     5458  MOL5458     0.2052
  29374  H        170.2590  190.5340  265.4130 H     5458  MOL5458     0.2052
  29375  O         12.8370  116.4980  108.5960 O.3   5459  MOL5459    -0.4105
  29376  H         13.3810  117.3010  108.7340 H     5459  MOL5459     0.2052
  29377  H         12.0520  116.5460  109.2020 H     5459  MOL5459     0.2052
  29378  O         62.9370   52.9100  192.3600 O.3   5460  MOL5460    -0.4105
  29379  H         62.7580   53.8630  192.2200 H     5460  MOL5460     0.2052
  29380  H         62.0870   52.4700  192.6230 H     5460  MOL5460     0.2052
  29381  O         30.1440   79.0780  257.2090 O.3   5461  MOL5461    -0.4105
  29382  H         30.1980   78.4750  256.4380 H     5461  MOL5461     0.2052
  29383  H         29.3100   78.8730  257.7060 H     5461  MOL5461     0.2052
  29384  O         74.5700  156.4270  208.5810 O.3   5462  MOL5462    -0.4105
  29385  H         74.3670  156.6890  209.5030 H     5462  MOL5462     0.2052
  29386  H         73.9290  155.7200  208.3110 H     5462  MOL5462     0.2052
  29387  O         98.8770   75.0370  275.6730 O.3   5463  MOL5463    -0.4105
  29388  H         98.7810   74.1720  276.1240 H     5463  MOL5463     0.2052
  29389  H         98.3790   75.7170  276.1980 H     5463  MOL5463     0.2052
  29390  O         48.1160   47.5400  252.1680 O.3   5464  MOL5464    -0.4105
  29391  H         49.0110   47.3800  251.8040 H     5464  MOL5464     0.2052
  29392  H         48.1910   47.6080  253.1560 H     5464  MOL5464     0.2052
  29393  O          1.4550  139.9590  128.5820 O.3   5465  MOL5465    -0.4105
  29394  H          1.8650  140.3680  127.7910 H     5465  MOL5465     0.2052
  29395  H          1.6470  138.9860  128.5630 H     5465  MOL5465     0.2052
  29396  O         13.1110   52.3100  297.1300 O.3   5466  MOL5466    -0.4105
  29397  H         13.8630   51.7220  296.9090 H     5466  MOL5466     0.2052
  29398  H         12.5650   52.4380  296.3110 H     5466  MOL5466     0.2052
  29399  O         10.5970  140.5850   92.1530 O.3   5467  MOL5467    -0.4105
  29400  H          9.6620  140.4600   91.8870 H     5467  MOL5467     0.2052
  29401  H         10.6890  141.4920   92.5430 H     5467  MOL5467     0.2052
  29402  O        157.9960   85.7700  119.1810 O.3   5468  MOL5468    -0.4105
  29403  H        158.2460   85.2460  119.9700 H     5468  MOL5468     0.2052
  29404  H        157.2150   86.3350  119.4180 H     5468  MOL5468     0.2052
  29405  O        195.6870   67.9200  157.4980 O.3   5469  MOL5469    -0.4105
  29406  H        196.0890   68.7390  157.8550 H     5469  MOL5469     0.2052
  29407  H        194.7230   67.9190  157.7330 H     5469  MOL5469     0.2052
  29408  O         38.4260  165.7790  179.7420 O.3   5470  MOL5470    -0.4105
  29409  H         37.8420  166.1540  179.0500 H     5470  MOL5470     0.2052
  29410  H         39.3010  166.2440  179.6940 H     5470  MOL5470     0.2052
  29411  O         89.2980    0.2650   20.2860 O.3   5471  MOL5471    -0.4105
  29412  H         89.7100    0.4900   19.4260 H     5471  MOL5471     0.2052
  29413  H         88.7860    1.0550   20.6010 H     5471  MOL5471     0.2052
  29414  O        193.5130   58.4660  124.7880 O.3   5472  MOL5472    -0.4105
  29415  H        193.4890   57.5210  125.0460 H     5472  MOL5472     0.2052
  29416  H        192.7850   58.6270  124.1330 H     5472  MOL5472     0.2052
  29417  O         54.4500  188.5380  115.2190 O.3   5473  MOL5473    -0.4105
  29418  H         53.6050  188.0430  115.2180 H     5473  MOL5473     0.2052
  29419  H         55.1950  187.8820  115.2350 H     5473  MOL5473     0.2052
  29420  O         83.6020   62.7570   39.5580 O.3   5474  MOL5474    -0.4105
  29421  H         84.3020   62.0770   39.6440 H     5474  MOL5474     0.2052
  29422  H         82.7220   62.3150   39.6830 H     5474  MOL5474     0.2052
  29423  O         12.6510   24.4380   40.3730 O.3   5475  MOL5475    -0.4105
  29424  H         13.5380   24.7120   40.0600 H     5475  MOL5475     0.2052
  29425  H         12.1330   25.2560   40.5920 H     5475  MOL5475     0.2052
  29426  O        194.8180   47.5670  231.5920 O.3   5476  MOL5476    -0.4105
  29427  H        195.7240   47.9390  231.5910 H     5476  MOL5476     0.2052
  29428  H        194.1720   48.3200  231.5660 H     5476  MOL5476     0.2052
  29429  O        139.2890  161.3690  288.7730 O.3   5477  MOL5477    -0.4105
  29430  H        139.7870  161.7790  289.5110 H     5477  MOL5477     0.2052
  29431  H        139.2830  162.0050  288.0120 H     5477  MOL5477     0.2052
  29432  O         29.1730   39.5350  255.7530 O.3   5478  MOL5478    -0.4105
  29433  H         30.1310   39.3400  255.6920 H     5478  MOL5478     0.2052
  29434  H         29.0530   40.5190  255.7100 H     5478  MOL5478     0.2052
  29435  O         44.4490  130.8270  167.8960 O.3   5479  MOL5479    -0.4105
  29436  H         43.5480  130.5780  168.1900 H     5479  MOL5479     0.2052
  29437  H         44.5060  130.6840  166.9150 H     5479  MOL5479     0.2052
  29438  O         59.8320  145.1030   23.4530 O.3   5480  MOL5480    -0.4105
  29439  H         59.3700  145.9640   23.3810 H     5480  MOL5480     0.2052
  29440  H         59.1590  144.3800   23.3570 H     5480  MOL5480     0.2052
  29441  O         33.7720   66.8970   38.2730 O.3   5481  MOL5481    -0.4105
  29442  H         33.7560   66.1230   37.6720 H     5481  MOL5481     0.2052
  29443  H         34.5170   66.7750   38.9160 H     5481  MOL5481     0.2052
  29444  O        182.9660  194.4310  286.5920 O.3   5482  MOL5482    -0.4105
  29445  H        182.5530  195.3200  286.5910 H     5482  MOL5482     0.2052
  29446  H        182.2420  193.7530  286.5890 H     5482  MOL5482     0.2052
  29447  O        120.7720    8.5390   78.0610 O.3   5483  MOL5483    -0.4105
  29448  H        121.1850    9.4280   78.0350 H     5483  MOL5483     0.2052
  29449  H        119.7900    8.6510   77.9700 H     5483  MOL5483     0.2052
  29450  O          5.6720   73.4180  165.7570 O.3   5484  MOL5484    -0.4105
  29451  H          5.4820   72.6770  165.1440 H     5484  MOL5484     0.2052
  29452  H          4.9000   74.0400  165.7400 H     5484  MOL5484     0.2052
  29453  O        168.3960   94.5540  225.5760 O.3   5485  MOL5485    -0.4105
  29454  H        168.2840   95.3240  226.1720 H     5485  MOL5485     0.2052
  29455  H        169.2670   94.1260  225.7810 H     5485  MOL5485     0.2052
  29456  O          0.9910    8.4680  222.8070 O.3   5486  MOL5486    -0.4105
  29457  H          1.1160    8.5220  223.7780 H     5486  MOL5486     0.2052
  29458  H          0.9480    9.3920  222.4480 H     5486  MOL5486     0.2052
  29459  O         61.5510  125.0310   75.9050 O.3   5487  MOL5487    -0.4105
  29460  H         62.1250  125.2370   75.1380 H     5487  MOL5487     0.2052
  29461  H         61.8190  124.1460   76.2650 H     5487  MOL5487     0.2052
  29462  O         83.9740  199.8510  123.9440 O.3   5488  MOL5488    -0.4105
  29463  H         84.2860  198.9230  123.9800 H     5488  MOL5488     0.2052
  29464  H         83.0200  199.8480  123.6740 H     5488  MOL5488     0.2052
  29465  O        137.8400   28.3670    7.2380 O.3   5489  MOL5489    -0.4105
  29466  H        138.0290   29.3290    7.2330 H     5489  MOL5489     0.2052
  29467  H        138.6880   27.8860    7.4250 H     5489  MOL5489     0.2052
  29468  O        193.9910    1.5240  232.3650 O.3   5490  MOL5490    -0.4105
  29469  H        193.0440    1.4040  232.1390 H     5490  MOL5490     0.2052
  29470  H        194.2620    0.7810  232.9650 H     5490  MOL5490     0.2052
  29471  O        125.1110  102.6420  239.6670 O.3   5491  MOL5491    -0.4105
  29472  H        125.0590  101.6650  239.6130 H     5491  MOL5491     0.2052
  29473  H        126.0380  102.8900  239.9210 H     5491  MOL5491     0.2052
  29474  O        172.0710  189.4300   52.8860 O.3   5492  MOL5492    -0.4105
  29475  H        172.1840  189.1860   51.9440 H     5492  MOL5492     0.2052
  29476  H        171.4850  190.2300   52.9310 H     5492  MOL5492     0.2052
  29477  O        122.9740   59.5090  188.8130 O.3   5493  MOL5493    -0.4105
  29478  H        122.1700   58.9650  188.9520 H     5493  MOL5493     0.2052
  29479  H        122.7520   60.4520  189.0280 H     5493  MOL5493     0.2052
  29480  O         57.1030   95.1300  250.2380 O.3   5494  MOL5494    -0.4105
  29481  H         57.8630   95.7110  250.4540 H     5494  MOL5494     0.2052
  29482  H         57.0840   94.3870  250.8950 H     5494  MOL5494     0.2052
  29483  O        143.0210  104.1560   35.7990 O.3   5495  MOL5495    -0.4105
  29484  H        144.0000  104.1820   35.7460 H     5495  MOL5495     0.2052
  29485  H        142.7340  103.2070   35.7580 H     5495  MOL5495     0.2052
  29486  O         94.9720   88.2410   34.1380 O.3   5496  MOL5496    -0.4105
  29487  H         94.5450   89.1230   34.1430 H     5496  MOL5496     0.2052
  29488  H         95.8620   88.3290   33.7080 H     5496  MOL5496     0.2052
  29489  O        181.0020  125.1830  188.2980 O.3   5497  MOL5497    -0.4105
  29490  H        180.2780  124.6430  187.9170 H     5497  MOL5497     0.2052
  29491  H        180.6380  125.6890  189.0700 H     5497  MOL5497     0.2052
  29492  O        193.7030  114.4440  117.9360 O.3   5498  MOL5498    -0.4105
  29493  H        194.4880  113.8610  118.0030 H     5498  MOL5498     0.2052
  29494  H        192.9110  113.9360  118.2500 H     5498  MOL5498     0.2052
  29495  O        174.5670  161.6380  250.3210 O.3   5499  MOL5499    -0.4105
  29496  H        173.9780  160.8630  250.2030 H     5499  MOL5499     0.2052
  29497  H        175.3940  161.4830  249.7950 H     5499  MOL5499     0.2052
  29498  O         99.4770   15.2910   42.4130 O.3   5500  MOL5500    -0.4105
  29499  H         99.8350   14.3980   42.6020 H     5500  MOL5500     0.2052
  29500  H        100.2410   15.9010   42.2410 H     5500  MOL5500     0.2052
  29501  O        169.1870  183.5990  296.0020 O.3   5501  MOL5501    -0.4105
  29502  H        168.8360  182.6840  296.0330 H     5501  MOL5501     0.2052
  29503  H        168.4530  184.2210  296.2420 H     5501  MOL5501     0.2052
  29504  O        126.6920  136.9830  208.9350 O.3   5502  MOL5502    -0.4105
  29505  H        127.1060  136.4900  208.1950 H     5502  MOL5502     0.2052
  29506  H        126.3710  137.8550  208.5870 H     5502  MOL5502     0.2052
  29507  O         30.3230   85.1770   58.6430 O.3   5503  MOL5503    -0.4105
  29508  H         29.5570   84.9870   59.2240 H     5503  MOL5503     0.2052
  29509  H         31.0230   84.4960   58.8190 H     5503  MOL5503     0.2052
  29510  O        191.5450   83.8490  183.2000 O.3   5504  MOL5504    -0.4105
  29511  H        190.9770   84.0750  182.4340 H     5504  MOL5504     0.2052
  29512  H        191.3180   84.4620  183.9470 H     5504  MOL5504     0.2052
  29513  O        111.1010  162.4500  254.3340 O.3   5505  MOL5505    -0.4105
  29514  H        110.9220  163.0890  255.0550 H     5505  MOL5505     0.2052
  29515  H        110.3210  161.8420  254.2570 H     5505  MOL5505     0.2052
  29516  O         37.9620  197.2540  196.4580 O.3   5506  MOL5506    -0.4105
  29517  H         38.2060  197.0770  197.3910 H     5506  MOL5506     0.2052
  29518  H         37.2580  197.9530  196.4480 H     5506  MOL5506     0.2052
  29519  O         93.6620   27.7100  157.7740 O.3   5507  MOL5507    -0.4105
  29520  H         94.1740   28.3590  158.3000 H     5507  MOL5507     0.2052
  29521  H         93.1020   28.2090  157.1240 H     5507  MOL5507     0.2052
  29522  O        181.0140   77.0060  125.5450 O.3   5508  MOL5508    -0.4105
  29523  H        180.6300   77.7850  125.9990 H     5508  MOL5508     0.2052
  29524  H        181.9950   77.1380  125.4770 H     5508  MOL5508     0.2052
  29525  O        187.1040  151.6490   22.7920 O.3   5509  MOL5509    -0.4105
  29526  H        186.1960  151.4780   22.4640 H     5509  MOL5509     0.2052
  29527  H        187.3400  150.9340   23.4380 H     5509  MOL5509     0.2052
  29528  O         58.1740   20.1950  142.3890 O.3   5510  MOL5510    -0.4105
  29529  H         58.3840   20.4410  143.3140 H     5510  MOL5510     0.2052
  29530  H         58.6940   19.3820  142.1590 H     5510  MOL5510     0.2052
  29531  O        177.4360  137.5490   62.2620 O.3   5511  MOL5511    -0.4105
  29532  H        176.5050  137.5660   62.5670 H     5511  MOL5511     0.2052
  29533  H        177.6490  136.6260   61.9650 H     5511  MOL5511     0.2052
  29534  O        137.0520  125.6680  203.2000 O.3   5512  MOL5512    -0.4105
  29535  H        138.0170  125.5430  203.0790 H     5512  MOL5512     0.2052
  29536  H        136.8820  126.6330  203.3580 H     5512  MOL5512     0.2052
  29537  O          6.5520    2.0360    2.3820 O.3   5513  MOL5513    -0.4105
  29538  H          6.5360    3.0160    2.4060 H     5513  MOL5513     0.2052
  29539  H          7.4970    1.7430    2.3210 H     5513  MOL5513     0.2052
  29540  O         97.3930  187.4830   72.3930 O.3   5514  MOL5514    -0.4105
  29541  H         96.9170  187.5350   73.2480 H     5514  MOL5514     0.2052
  29542  H         96.7510  187.6960   71.6670 H     5514  MOL5514     0.2052
  29543  O        113.9550   30.3550   18.7620 O.3   5515  MOL5515    -0.4105
  29544  H        113.3990   30.3940   17.9560 H     5515  MOL5515     0.2052
  29545  H        114.4700   29.5080   18.7440 H     5515  MOL5515     0.2052
  29546  O         36.3520  136.3060   79.8740 O.3   5516  MOL5516    -0.4105
  29547  H         36.2660  135.4030   80.2450 H     5516  MOL5516     0.2052
  29548  H         35.7010  136.8950   80.3360 H     5516  MOL5516     0.2052
  29549  O        116.2600   74.0130   33.6820 O.3   5517  MOL5517    -0.4105
  29550  H        116.4330   73.0650   33.5040 H     5517  MOL5517     0.2052
  29551  H        115.9780   74.4420   32.8330 H     5517  MOL5517     0.2052
  29552  O        127.0520   12.7190    7.5990 O.3   5518  MOL5518    -0.4105
  29553  H        127.4610   13.6030    7.4850 H     5518  MOL5518     0.2052
  29554  H        127.7700   12.0360    7.5450 H     5518  MOL5518     0.2052
  29555  O        131.4230   99.6000  267.9270 O.3   5519  MOL5519    -0.4105
  29556  H        131.7360  100.2730  267.2880 H     5519  MOL5519     0.2052
  29557  H        131.4200   98.7180  267.4730 H     5519  MOL5519     0.2052
  29558  O        130.8810   68.0220   14.4930 O.3   5520  MOL5520    -0.4105
  29559  H        130.0280   67.8500   14.0400 H     5520  MOL5520     0.2052
  29560  H        131.3700   68.7160   13.9790 H     5520  MOL5520     0.2052
  29561  O        174.9870   94.1580  213.4950 O.3   5521  MOL5521    -0.4105
  29562  H        175.2150   93.2060  213.5480 H     5521  MOL5521     0.2052
  29563  H        175.7810   94.6830  213.7760 H     5521  MOL5521     0.2052
  29564  O        125.6470  158.0870  225.8900 O.3   5522  MOL5522    -0.4105
  29565  H        125.3060  157.2240  225.5760 H     5522  MOL5522     0.2052
  29566  H        126.5170  157.9320  226.3410 H     5522  MOL5522     0.2052
  29567  O        127.7190  121.5960   52.9490 O.3   5523  MOL5523    -0.4105
  29568  H        127.5450  122.3660   52.3690 H     5523  MOL5523     0.2052
  29569  H        127.0060  121.5590   53.6380 H     5523  MOL5523     0.2052
  29570  O         37.3070   81.9080  187.9140 O.3   5524  MOL5524    -0.4105
  29571  H         37.0780   82.4510  187.1310 H     5524  MOL5524     0.2052
  29572  H         38.2830   81.9910  188.0750 H     5524  MOL5524     0.2052
  29573  O          6.7450   65.5580  165.1780 O.3   5525  MOL5525    -0.4105
  29574  H          6.4280   65.1410  164.3500 H     5525  MOL5525     0.2052
  29575  H          7.5340   66.1190  164.9610 H     5525  MOL5525     0.2052
  29576  O         33.2650  119.5590  296.4930 O.3   5526  MOL5526    -0.4105
  29577  H         33.0740  118.5980  296.4670 H     5526  MOL5526     0.2052
  29578  H         34.1050  119.6960  297.0020 H     5526  MOL5526     0.2052
  29579  O         90.4490  152.1790   69.4880 O.3   5527  MOL5527    -0.4105
  29580  H         90.2360  152.7010   68.6860 H     5527  MOL5527     0.2052
  29581  H         89.6650  151.6110   69.7050 H     5527  MOL5527     0.2052
  29582  O        142.9160   56.6090  169.1530 O.3   5528  MOL5528    -0.4105
  29583  H        143.2640   55.7660  169.5120 H     5528  MOL5528     0.2052
  29584  H        143.2250   57.3470  169.7400 H     5528  MOL5528     0.2052
  29585  O         80.7420  171.2410  143.2160 O.3   5529  MOL5529    -0.4105
  29586  H         80.4020  171.9680  143.7790 H     5529  MOL5529     0.2052
  29587  H         80.0220  170.9690  142.5900 H     5529  MOL5529     0.2052
  29588  O         91.1960    4.0030  166.9890 O.3   5530  MOL5530    -0.4105
  29589  H         91.8650    3.6310  166.3760 H     5530  MOL5530     0.2052
  29590  H         91.6440    4.2110  167.8490 H     5530  MOL5530     0.2052
  29591  O        100.7320   40.7920  293.4200 O.3   5531  MOL5531    -0.4105
  29592  H         99.7870   40.5330  293.4160 H     5531  MOL5531     0.2052
  29593  H        101.2800   39.9670  293.3540 H     5531  MOL5531     0.2052
  29594  O         62.4170   40.8110  153.8470 O.3   5532  MOL5532    -0.4105
  29595  H         62.8470   40.0840  154.3430 H     5532  MOL5532     0.2052
  29596  H         62.9370   41.6420  154.0020 H     5532  MOL5532     0.2052
  29597  O         31.6930   27.1050    2.3930 O.3   5533  MOL5533    -0.4105
  29598  H         32.0510   26.3210    2.8590 H     5533  MOL5533     0.2052
  29599  H         31.0190   26.7930    1.7350 H     5533  MOL5533     0.2052
  29600  O        152.7880  163.1260    2.9260 O.3   5534  MOL5534    -0.4105
  29601  H        153.4480  163.8380    3.0630 H     5534  MOL5534     0.2052
  29602  H        151.9040  163.5490    2.7670 H     5534  MOL5534     0.2052
  29603  O        156.6370   66.3000  170.7950 O.3   5535  MOL5535    -0.4105
  29604  H        157.5910   66.2830  171.0210 H     5535  MOL5535     0.2052
  29605  H        156.2670   65.3910  170.9420 H     5535  MOL5535     0.2052
  29606  O        121.4750  136.6490   74.2330 O.3   5536  MOL5536    -0.4105
  29607  H        122.3570  137.0740   74.1840 H     5536  MOL5536     0.2052
  29608  H        121.6050  135.6880   74.4440 H     5536  MOL5536     0.2052
  29609  O         94.2180   18.6380  287.9280 O.3   5537  MOL5537    -0.4105
  29610  H         94.1120   17.8900  288.5510 H     5537  MOL5537     0.2052
  29611  H         94.9310   19.2340  288.2770 H     5537  MOL5537     0.2052
  29612  O        121.8450  177.9110   77.6240 O.3   5538  MOL5538    -0.4105
  29613  H        120.9230  177.6420   77.4290 H     5538  MOL5538     0.2052
  29614  H        122.4410  177.4810   76.9580 H     5538  MOL5538     0.2052
  29615  O        160.4950  102.7380  284.2270 O.3   5539  MOL5539    -0.4105
  29616  H        159.5410  102.5690  284.0790 H     5539  MOL5539     0.2052
  29617  H        160.9960  101.9140  283.9920 H     5539  MOL5539     0.2052
  29618  O        151.9490  196.3750   61.1620 O.3   5540  MOL5540    -0.4105
  29619  H        152.1850  197.2980   60.9330 H     5540  MOL5540     0.2052
  29620  H        151.0080  196.2180   60.8880 H     5540  MOL5540     0.2052
  29621  O         51.3860   31.5510  215.3650 O.3   5541  MOL5541    -0.4105
  29622  H         51.7630   32.4420  215.2060 H     5541  MOL5541     0.2052
  29623  H         50.5860   31.4460  214.7870 H     5541  MOL5541     0.2052
  29624  O         11.2230  186.9010  114.8830 O.3   5542  MOL5542    -0.4105
  29625  H         11.8780  187.1630  115.5640 H     5542  MOL5542     0.2052
  29626  H         10.6060  186.2360  115.2860 H     5542  MOL5542     0.2052
  29627  O         60.2890  156.4320  163.6820 O.3   5543  MOL5543    -0.4105
  29628  H         59.4020  156.4740  163.2670 H     5543  MOL5543     0.2052
  29629  H         60.3040  157.0610  164.4490 H     5543  MOL5543     0.2052
  29630  O        152.3910  142.1300  260.1440 O.3   5544  MOL5544    -0.4105
  29631  H        152.5030  142.4630  261.0590 H     5544  MOL5544     0.2052
  29632  H        151.9580  142.8420  259.6050 H     5544  MOL5544     0.2052
  29633  O         12.5650  164.1120    7.8580 O.3   5545  MOL5545    -0.4105
  29634  H         12.0390  164.1210    8.6840 H     5545  MOL5545     0.2052
  29635  H         12.9070  165.0300    7.6970 H     5545  MOL5545     0.2052
  29636  O        153.0800   17.9280  199.0510 O.3   5546  MOL5546    -0.4105
  29637  H        153.0950   16.9620  199.2150 H     5546  MOL5546     0.2052
  29638  H        153.9120   18.1740  198.5700 H     5546  MOL5546     0.2052
  29639  O          9.6990  136.7930  125.9720 O.3   5547  MOL5547    -0.4105
  29640  H         10.4560  137.0100  126.5550 H     5547  MOL5547     0.2052
  29641  H         10.0540  136.5600  125.0750 H     5547  MOL5547     0.2052
  29642  O        135.0610   60.0530  190.2760 O.3   5548  MOL5548    -0.4105
  29643  H        135.1470   61.0280  190.2260 H     5548  MOL5548     0.2052
  29644  H        134.0960   59.8250  190.2460 H     5548  MOL5548     0.2052
  29645  O          7.0890   37.9000   80.2560 O.3   5549  MOL5549    -0.4105
  29646  H          6.6450   37.0280   80.1930 H     5549  MOL5549     0.2052
  29647  H          8.0100   37.8060   79.9010 H     5549  MOL5549     0.2052
  29648  O         50.0180   18.0920  143.0820 O.3   5550  MOL5550    -0.4105
  29649  H         50.2300   19.0020  142.7860 H     5550  MOL5550     0.2052
  29650  H         50.7710   17.4990  142.8250 H     5550  MOL5550     0.2052
  29651  O         59.2390   72.0450  184.3420 O.3   5551  MOL5551    -0.4105
  29652  H         58.2850   72.0570  184.1170 H     5551  MOL5551     0.2052
  29653  H         59.4260   71.2190  184.8580 H     5551  MOL5551     0.2052
  29654  O         63.9840   95.5570   70.3650 O.3   5552  MOL5552    -0.4105
  29655  H         64.9500   95.6930   70.4530 H     5552  MOL5552     0.2052
  29656  H         63.5320   96.4270   70.5200 H     5552  MOL5552     0.2052
  29657  O        164.1350  185.9170  147.3870 O.3   5553  MOL5553    -0.4105
  29658  H        163.5670  186.7160  147.3770 H     5553  MOL5553     0.2052
  29659  H        163.5860  185.1500  147.6950 H     5553  MOL5553     0.2052
  29660  O        122.0090  165.7480  102.2270 O.3   5554  MOL5554    -0.4105
  29661  H        121.3340  166.4560  102.1580 H     5554  MOL5554     0.2052
  29662  H        122.8890  166.1740  102.4000 H     5554  MOL5554     0.2052
  29663  O        175.1430   25.0830  115.0330 O.3   5555  MOL5555    -0.4105
  29664  H        175.3160   26.0140  115.2860 H     5555  MOL5555     0.2052
  29665  H        174.3490   24.7660  115.5360 H     5555  MOL5555     0.2052
  29666  O         54.6710  127.6710  287.9690 O.3   5556  MOL5556    -0.4105
  29667  H         53.8680  127.5340  288.5140 H     5556  MOL5556     0.2052
  29668  H         55.1380  128.4810  288.3020 H     5556  MOL5556     0.2052
  29669  O         58.3460  199.4870  153.0890 O.3   5557  MOL5557    -0.4105
  29670  H         57.4510  199.8190  153.3100 H     5557  MOL5557     0.2052
  29671  H         58.5200  198.6770  153.6350 H     5557  MOL5557     0.2052
  29672  O        176.6080   70.7270   55.7330 O.3   5558  MOL5558    -0.4105
  29673  H        177.1260   70.0250   56.1810 H     5558  MOL5558     0.2052
  29674  H        176.4170   70.4270   54.8060 H     5558  MOL5558     0.2052
  29675  O        179.4640  157.8440  283.9830 O.3   5559  MOL5559    -0.4105
  29676  H        178.9650  158.1620  283.2020 H     5559  MOL5559     0.2052
  29677  H        180.2370  158.4490  284.1240 H     5559  MOL5559     0.2052
  29678  O        118.8080   39.3410  158.3390 O.3   5560  MOL5560    -0.4105
  29679  H        119.7720   39.2150  158.2080 H     5560  MOL5560     0.2052
  29680  H        118.6160   40.3140  158.3160 H     5560  MOL5560     0.2052
  29681  O        181.2170   25.8380   84.7500 O.3   5561  MOL5561    -0.4105
  29682  H        181.5730   26.2030   85.5870 H     5561  MOL5561     0.2052
  29683  H        181.7770   26.1740   84.0030 H     5561  MOL5561     0.2052
  29684  O        187.1510   37.7490  149.5040 O.3   5562  MOL5562    -0.4105
  29685  H        187.1960   37.2840  148.6430 H     5562  MOL5562     0.2052
  29686  H        188.0370   37.6730  149.9450 H     5562  MOL5562     0.2052
  29687  O          6.3740  163.0880   81.5730 O.3   5563  MOL5563    -0.4105
  29688  H          7.3180  163.3520   81.5950 H     5563  MOL5563     0.2052
  29689  H          6.3290  162.0970   81.6040 H     5563  MOL5563     0.2052
  29690  O         84.2200   44.7350  237.8500 O.3   5564  MOL5564    -0.4105
  29691  H         83.9830   43.7840  237.8200 H     5564  MOL5564     0.2052
  29692  H         83.3800   45.2640  237.8390 H     5564  MOL5564     0.2052
  29693  O         74.7400   80.0870  299.1740 O.3   5565  MOL5565    -0.4105
  29694  H         75.0860   79.5770  298.4120 H     5565  MOL5565     0.2052
  29695  H         75.3810   79.9950  299.9260 H     5565  MOL5565     0.2052
  29696  O        117.3780  150.9000  130.6790 O.3   5566  MOL5566    -0.4105
  29697  H        117.8060  150.0210  130.6040 H     5566  MOL5566     0.2052
  29698  H        116.3950  150.7690  130.6620 H     5566  MOL5566     0.2052
  29699  O         99.0160   95.0730  285.9400 O.3   5567  MOL5567    -0.4105
  29700  H         98.4300   95.7980  285.6370 H     5567  MOL5567     0.2052
  29701  H         99.7820   95.4760  286.4250 H     5567  MOL5567     0.2052
  29702  O        190.4910   35.7550  113.3280 O.3   5568  MOL5568    -0.4105
  29703  H        189.6550   35.2440  113.2900 H     5568  MOL5568     0.2052
  29704  H        191.2460   35.1120  113.3580 H     5568  MOL5568     0.2052
  29705  O         38.5270  129.8520    5.4110 O.3   5569  MOL5569    -0.4105
  29706  H         38.6650  128.9120    5.6510 H     5569  MOL5569     0.2052
  29707  H         37.6360  130.1300    5.7460 H     5569  MOL5569     0.2052
  29708  O        118.2110   39.5610  213.7040 O.3   5570  MOL5570    -0.4105
  29709  H        117.4980   40.0990  213.3010 H     5570  MOL5570     0.2052
  29710  H        119.0830   39.9660  213.4590 H     5570  MOL5570     0.2052
  29711  O         15.0190  141.4750  125.5460 O.3   5571  MOL5571    -0.4105
  29712  H         15.4380  141.0950  124.7460 H     5571  MOL5571     0.2052
  29713  H         14.1940  141.9510  125.2680 H     5571  MOL5571     0.2052
  29714  O         15.3160   68.6320   63.1860 O.3   5572  MOL5572    -0.4105
  29715  H         16.0260   67.9900   63.3960 H     5572  MOL5572     0.2052
  29716  H         15.6960   69.5460   63.2450 H     5572  MOL5572     0.2052
  29717  O          4.5540  175.5510  279.7010 O.3   5573  MOL5573    -0.4105
  29718  H          5.2090  175.4240  278.9840 H     5573  MOL5573     0.2052
  29719  H          5.0430  175.6140  280.5620 H     5573  MOL5573     0.2052
  29720  O        149.3910  111.8110   51.1350 O.3   5574  MOL5574    -0.4105
  29721  H        149.3900  110.8370   51.0320 H     5574  MOL5574     0.2052
  29722  H        148.4480  112.1190   51.1790 H     5574  MOL5574     0.2052
  29723  O          2.5640  119.1470  145.9610 O.3   5575  MOL5575    -0.4105
  29724  H          3.3290  119.6500  146.3110 H     5575  MOL5575     0.2052
  29725  H          2.2160  119.6260  145.1650 H     5575  MOL5575     0.2052
  29726  O         61.1250  171.4990  294.4250 O.3   5576  MOL5576    -0.4105
  29727  H         62.0260  171.5660  294.0460 H     5576  MOL5576     0.2052
  29728  H         61.1720  170.9340  295.2390 H     5576  MOL5576     0.2052
  29729  O        179.2410   93.0030  296.1420 O.3   5577  MOL5577    -0.4105
  29730  H        179.9410   92.8400  296.8080 H     5577  MOL5577     0.2052
  29731  H        179.3280   92.3210  295.4270 H     5577  MOL5577     0.2052
  29732  O        157.9590   64.1600   83.4890 O.3   5578  MOL5578    -0.4105
  29733  H        158.6770   64.8070   83.3240 H     5578  MOL5578     0.2052
  29734  H        157.0900   64.6310   83.3960 H     5578  MOL5578     0.2052
  29735  O         65.9820   74.9880  200.1010 O.3   5579  MOL5579    -0.4105
  29736  H         66.1290   74.6620  201.0140 H     5579  MOL5579     0.2052
  29737  H         65.0270   74.8490  199.8720 H     5579  MOL5579     0.2052
  29738  O         10.8070   95.2370  139.2650 O.3   5580  MOL5580    -0.4105
  29739  H          9.8400   95.3310  139.1350 H     5580  MOL5580     0.2052
  29740  H         11.0850   94.3580  138.8990 H     5580  MOL5580     0.2052
  29741  O          9.5910  131.1030    6.1450 O.3   5581  MOL5581    -0.4105
  29742  H          8.9100  130.4390    6.3810 H     5581  MOL5581     0.2052
  29743  H         10.4210  130.6210    5.8930 H     5581  MOL5581     0.2052
  29744  O         28.8290   49.1600   18.5160 O.3   5582  MOL5582    -0.4105
  29745  H         29.4820   49.8470   18.2680 H     5582  MOL5582     0.2052
  29746  H         28.4170   49.4200   19.3810 H     5582  MOL5582     0.2052
  29747  O         37.7300   30.3110  202.0320 O.3   5583  MOL5583    -0.4105
  29748  H         38.4010   31.0220  202.1000 H     5583  MOL5583     0.2052
  29749  H         38.1950   29.4370  202.0950 H     5583  MOL5583     0.2052
  29750  O         17.1900   27.1530   76.4060 O.3   5584  MOL5584    -0.4105
  29751  H         17.5460   26.3570   76.8520 H     5584  MOL5584     0.2052
  29752  H         17.7730   27.9230   76.6330 H     5584  MOL5584     0.2052
  29753  O        145.2710   85.3670  198.2810 O.3   5585  MOL5585    -0.4105
  29754  H        145.8660   86.0990  198.0150 H     5585  MOL5585     0.2052
  29755  H        145.8310   84.5950  198.5530 H     5585  MOL5585     0.2052
  29756  O        135.7050  132.5220  292.2270 O.3   5586  MOL5586    -0.4105
  29757  H        136.5830  132.2850  292.5940 H     5586  MOL5586     0.2052
  29758  H        135.0970  132.7260  292.9840 H     5586  MOL5586     0.2052
  29759  O        126.8490  156.9130   80.4470 O.3   5587  MOL5587    -0.4105
  29760  H        126.7440  156.7710   81.4110 H     5587  MOL5587     0.2052
  29761  H        127.6900  156.4720   80.1580 H     5587  MOL5587     0.2052
  29762  O        165.7830   92.3340  110.2960 O.3   5588  MOL5588    -0.4105
  29763  H        166.2290   91.9080  109.5350 H     5588  MOL5588     0.2052
  29764  H        164.8170   92.4150  110.0850 H     5588  MOL5588     0.2052
  29765  O         85.9110  102.1520   28.5730 O.3   5589  MOL5589    -0.4105
  29766  H         85.8670  102.8620   29.2470 H     5589  MOL5589     0.2052
  29767  H         85.1210  102.2370   27.9800 H     5589  MOL5589     0.2052
  29768  O        155.1370   48.3880  176.0950 O.3   5590  MOL5590    -0.4105
  29769  H        154.6780   47.5220  176.0790 H     5590  MOL5590     0.2052
  29770  H        156.1140   48.2230  176.0560 H     5590  MOL5590     0.2052
  29771  O          1.2380   77.8570   25.1350 O.3   5591  MOL5591    -0.4105
  29772  H          0.9370   78.7890   25.1640 H     5591  MOL5591     0.2052
  29773  H          0.4380   77.2710   25.1710 H     5591  MOL5591     0.2052
  29774  O         20.1560  122.7070  250.6470 O.3   5592  MOL5592    -0.4105
  29775  H         21.0150  123.1810  250.6330 H     5592  MOL5592     0.2052
  29776  H         20.3390  121.7320  250.6240 H     5592  MOL5592     0.2052
  29777  O        193.9540  101.4420  202.9450 O.3   5593  MOL5593    -0.4105
  29778  H        194.4940  100.7260  202.5490 H     5593  MOL5593     0.2052
  29779  H        193.0690  101.0650  203.1870 H     5593  MOL5593     0.2052
  29780  O        184.3420  145.8180  170.6850 O.3   5594  MOL5594    -0.4105
  29781  H        184.4180  146.7800  170.5120 H     5594  MOL5594     0.2052
  29782  H        184.9730  145.5830  171.4140 H     5594  MOL5594     0.2052
  29783  O        179.5480  185.1960   96.2540 O.3   5595  MOL5595    -0.4105
  29784  H        178.8620  184.9020   96.8890 H     5595  MOL5595     0.2052
  29785  H        179.0960  185.6590   95.5010 H     5595  MOL5595     0.2052
  29786  O         60.2180  192.1280  103.2470 O.3   5596  MOL5596    -0.4105
  29787  H         60.3070  191.1560  103.1570 H     5596  MOL5596     0.2052
  29788  H         59.2640  192.3660  103.1130 H     5596  MOL5596     0.2052
  29789  O        178.7280  129.2570   53.4780 O.3   5597  MOL5597    -0.4105
  29790  H        179.5770  129.6950   53.2600 H     5597  MOL5597     0.2052
  29791  H        178.1410  129.3030   52.6790 H     5597  MOL5597     0.2052
  29792  O         84.7270   32.8270  149.5560 O.3   5598  MOL5598    -0.4105
  29793  H         84.4380   33.4800  148.8840 H     5598  MOL5598     0.2052
  29794  H         83.9200   32.3780  149.9190 H     5598  MOL5598     0.2052
  29795  O         88.0580   38.5730  223.0590 O.3   5599  MOL5599    -0.4105
  29796  H         88.5260   39.4300  222.9840 H     5599  MOL5599     0.2052
  29797  H         88.7120   37.8460  222.8890 H     5599  MOL5599     0.2052
  29798  O        160.0170  131.8610   25.2920 O.3   5600  MOL5600    -0.4105
  29799  H        160.6460  131.2580   25.7410 H     5600  MOL5600     0.2052
  29800  H        159.7100  132.5360   25.9510 H     5600  MOL5600     0.2052
  29801  O        178.0420   24.9140  237.9960 O.3   5601  MOL5601    -0.4105
  29802  H        178.5340   24.0670  238.0210 H     5601  MOL5601     0.2052
  29803  H        178.5080   25.5620  238.5860 H     5601  MOL5601     0.2052
  29804  O        183.2690   93.5260   60.6940 O.3   5602  MOL5602    -0.4105
  29805  H        182.8080   94.1520   61.2900 H     5602  MOL5602     0.2052
  29806  H        182.9410   93.6790   59.7700 H     5602  MOL5602     0.2052
  29807  O          3.9360  190.6170   52.3260 O.3   5603  MOL5603    -0.4105
  29808  H          4.0000  191.5070   51.9200 H     5603  MOL5603     0.2052
  29809  H          4.7720  190.1220   52.1210 H     5603  MOL5603     0.2052
  29810  O         54.7130  183.6410   58.9120 O.3   5604  MOL5604    -0.4105
  29811  H         54.0590  183.9250   59.5840 H     5604  MOL5604     0.2052
  29812  H         54.6160  184.2270   58.1170 H     5604  MOL5604     0.2052
  29813  O         74.7010  114.2230  241.9090 O.3   5605  MOL5605    -0.4105
  29814  H         74.4500  114.9460  242.5210 H     5605  MOL5605     0.2052
  29815  H         75.6790  114.0760  241.9860 H     5605  MOL5605     0.2052
  29816  O        133.3320   82.1640  185.1780 O.3   5606  MOL5606    -0.4105
  29817  H        132.4560   82.0800  185.6110 H     5606  MOL5606     0.2052
  29818  H        133.2020   82.5990  184.2960 H     5606  MOL5606     0.2052
  29819  O        183.3780  177.2400   49.0460 O.3   5607  MOL5607    -0.4105
  29820  H        183.9340  177.8610   49.5610 H     5607  MOL5607     0.2052
  29821  H        183.9670  176.5390   48.6640 H     5607  MOL5607     0.2052
  29822  O         35.3230  195.5750  188.8770 O.3   5608  MOL5608    -0.4105
  29823  H         35.0450  194.6360  188.9240 H     5608  MOL5608     0.2052
  29824  H         36.1740  195.6720  189.3780 H     5608  MOL5608     0.2052
  29825  O          6.7500  125.9660  287.2790 O.3   5609  MOL5609    -0.4105
  29826  H          6.7480  125.1750  287.8570 H     5609  MOL5609     0.2052
  29827  H          6.8300  126.7710  287.8530 H     5609  MOL5609     0.2052
  29828  O        178.4720   67.9740  132.3310 O.3   5610  MOL5610    -0.4105
  29829  H        177.6420   68.3340  131.9560 H     5610  MOL5610     0.2052
  29830  H        178.5030   67.0010  132.1380 H     5610  MOL5610     0.2052
  29831  O         60.8610  191.0350   59.1070 O.3   5611  MOL5611    -0.4105
  29832  H         59.9000  190.8610   59.0270 H     5611  MOL5611     0.2052
  29833  H         61.3320  190.1620   59.1370 H     5611  MOL5611     0.2052
  29834  O         36.8500   27.6780  223.4010 O.3   5612  MOL5612    -0.4105
  29835  H         36.4230   28.3480  223.9760 H     5612  MOL5612     0.2052
  29836  H         36.6940   26.7830  223.7990 H     5612  MOL5612     0.2052
  29837  O        116.3750  187.7370  220.3080 O.3   5613  MOL5613    -0.4105
  29838  H        116.8450  188.0840  219.5210 H     5613  MOL5613     0.2052
  29839  H        116.4710  188.3970  221.0430 H     5613  MOL5613     0.2052
  29840  O        118.1660  140.7430  289.7080 O.3   5614  MOL5614    -0.4105
  29841  H        118.4380  141.0930  290.5820 H     5614  MOL5614     0.2052
  29842  H        118.9690  140.7070  289.1250 H     5614  MOL5614     0.2052
  29843  O        184.9370   55.7460  170.6820 O.3   5615  MOL5615    -0.4105
  29844  H        185.8980   55.8480  170.5220 H     5615  MOL5615     0.2052
  29845  H        184.5610   56.6400  170.8940 H     5615  MOL5615     0.2052
  29846  O        146.5400   35.3620   32.3910 O.3   5616  MOL5616    -0.4105
  29847  H        147.4970   35.5270   32.5190 H     5616  MOL5616     0.2052
  29848  H        146.0980   36.2290   32.1990 H     5616  MOL5616     0.2052
  29849  O        140.0510  183.3790   47.0930 O.3   5617  MOL5617    -0.4105
  29850  H        140.8790  183.3280   47.6150 H     5617  MOL5617     0.2052
  29851  H        139.4760  184.0830   47.4890 H     5617  MOL5617     0.2052
  29852  O        113.1240   52.0630   75.1690 O.3   5618  MOL5618    -0.4105
  29853  H        113.7550   52.6920   74.7600 H     5618  MOL5618     0.2052
  29854  H        112.8770   52.4100   76.0650 H     5618  MOL5618     0.2052
  29855  O        116.5260  129.2160  277.1250 O.3   5619  MOL5619    -0.4105
  29856  H        115.6010  129.5400  277.0900 H     5619  MOL5619     0.2052
  29857  H        116.5570  128.4300  277.7290 H     5619  MOL5619     0.2052
  29858  O        170.6140   81.6460    8.0260 O.3   5620  MOL5620    -0.4105
  29859  H        169.6770   81.4080    7.8700 H     5620  MOL5620     0.2052
  29860  H        170.6630   82.6250    8.1830 H     5620  MOL5620     0.2052
  29861  O         61.7560    5.4470  115.6770 O.3   5621  MOL5621    -0.4105
  29862  H         61.7200    4.6230  116.2050 H     5621  MOL5621     0.2052
  29863  H         62.7030    5.7410  115.6240 H     5621  MOL5621     0.2052
  29864  O         22.8880   81.9490  269.8020 O.3   5622  MOL5622    -0.4105
  29865  H         23.1130   81.1010  270.2390 H     5622  MOL5622     0.2052
  29866  H         22.4900   82.5530  270.4810 H     5622  MOL5622     0.2052
  29867  O        159.7420   78.6440  211.2080 O.3   5623  MOL5623    -0.4105
  29868  H        159.0960   79.3790  211.2520 H     5623  MOL5623     0.2052
  29869  H        159.2390   77.7890  211.1940 H     5623  MOL5623     0.2052
  29870  O         47.1380  100.6550   76.0390 O.3   5624  MOL5624    -0.4105
  29871  H         47.8670  100.2590   75.5160 H     5624  MOL5624     0.2052
  29872  H         46.2900  100.5200   75.5410 H     5624  MOL5624     0.2052
  29873  O         71.5290   71.3660  252.6210 O.3   5625  MOL5625    -0.4105
  29874  H         72.0770   72.1440  252.3890 H     5625  MOL5625     0.2052
  29875  H         72.1330   70.6420  252.9300 H     5625  MOL5625     0.2052
  29876  O        136.4980    2.4180   63.3520 O.3   5626  MOL5626    -0.4105
  29877  H        136.1420    1.9140   62.5910 H     5626  MOL5626     0.2052
  29878  H        136.3150    1.9010   64.1790 H     5626  MOL5626     0.2052
  29879  O        148.0500    3.9130  201.9090 O.3   5627  MOL5627    -0.4105
  29880  H        147.4370    4.6710  201.8080 H     5627  MOL5627     0.2052
  29881  H        147.8050    3.4240  202.7370 H     5627  MOL5627     0.2052
  29882  O        176.0390   91.1730  104.4060 O.3   5628  MOL5628    -0.4105
  29883  H        175.6630   90.4070  104.8870 H     5628  MOL5628     0.2052
  29884  H        176.5130   90.8330  103.6020 H     5628  MOL5628     0.2052
  29885  O        151.5270  167.6080  256.9420 O.3   5629  MOL5629    -0.4105
  29886  H        151.8840  168.4010  257.3920 H     5629  MOL5629     0.2052
  29887  H        150.8900  167.9070  256.2420 H     5629  MOL5629     0.2052
  29888  O        186.8560   94.9410   37.5660 O.3   5630  MOL5630    -0.4105
  29889  H        186.8820   95.3120   38.4720 H     5630  MOL5630     0.2052
  29890  H        186.6870   93.9650   37.6340 H     5630  MOL5630     0.2052
  29891  O        112.8210  118.1570  266.2840 O.3   5631  MOL5631    -0.4105
  29892  H        113.7550  118.3680  266.4920 H     5631  MOL5631     0.2052
  29893  H        112.8090  117.5080  265.5330 H     5631  MOL5631     0.2052
  29894  O        113.6390  191.5390  135.9420 O.3   5632  MOL5632    -0.4105
  29895  H        114.2720  192.1050  135.4530 H     5632  MOL5632     0.2052
  29896  H        114.0920  190.6840  136.1600 H     5632  MOL5632     0.2052
  29897  O         13.1200   55.1120  243.4250 O.3   5633  MOL5633    -0.4105
  29898  H         14.0150   54.8460  243.7220 H     5633  MOL5633     0.2052
  29899  H         13.0320   54.8890  242.4620 H     5633  MOL5633     0.2052
  29900  O        187.4740  130.3800  207.2470 O.3   5634  MOL5634    -0.4105
  29901  H        188.1720  129.8050  207.6230 H     5634  MOL5634     0.2052
  29902  H        186.9770  129.8590  206.5640 H     5634  MOL5634     0.2052
  29903  O        160.2420   56.9460  201.2140 O.3   5635  MOL5635    -0.4105
  29904  H        161.1790   57.0780  200.9610 H     5635  MOL5635     0.2052
  29905  H        160.1090   55.9850  201.4250 H     5635  MOL5635     0.2052
  29906  O         46.5670   85.8180  295.3470 O.3   5636  MOL5636    -0.4105
  29907  H         46.2170   85.4800  294.4960 H     5636  MOL5636     0.2052
  29908  H         46.0030   85.4570  296.0800 H     5636  MOL5636     0.2052
  29909  O        133.2730   94.4470    9.5950 O.3   5637  MOL5637    -0.4105
  29910  H        132.5380   94.7160    9.0060 H     5637  MOL5637     0.2052
  29911  H        132.9790   94.5720   10.5350 H     5637  MOL5637     0.2052
  29912  O         85.7920  145.0120  260.5290 O.3   5638  MOL5638    -0.4105
  29913  H         86.4850  144.3210  260.5810 H     5638  MOL5638     0.2052
  29914  H         84.9160  144.5890  260.7230 H     5638  MOL5638     0.2052
  29915  O        126.4630   28.1370   90.2940 O.3   5639  MOL5639    -0.4105
  29916  H        126.2280   29.0450   90.5800 H     5639  MOL5639     0.2052
  29917  H        125.7580   27.8140   89.6760 H     5639  MOL5639     0.2052
  29918  O          2.1990  129.2670  248.7820 O.3   5640  MOL5640    -0.4105
  29919  H          2.9610  129.8830  248.8000 H     5640  MOL5640     0.2052
  29920  H          2.3290  128.5900  249.4950 H     5640  MOL5640     0.2052
  29921  O          3.4860   15.0570   90.2720 O.3   5641  MOL5641    -0.4105
  29922  H          3.9550   15.0580   89.4120 H     5641  MOL5641     0.2052
  29923  H          3.9240   14.3920   90.8640 H     5641  MOL5641     0.2052
  29924  O        130.2710  187.0860  152.0660 O.3   5642  MOL5642    -0.4105
  29925  H        130.6440  187.9910  152.1170 H     5642  MOL5642     0.2052
  29926  H        129.3700  187.0970  152.4820 H     5642  MOL5642     0.2052
  29927  O         34.3010   69.6740  178.2170 O.3   5643  MOL5643    -0.4105
  29928  H         34.9890   69.8920  178.8800 H     5643  MOL5643     0.2052
  29929  H         34.4030   70.2930  177.4480 H     5643  MOL5643     0.2052
  29930  O         14.9730   78.6100  267.5660 O.3   5644  MOL5644    -0.4105
  29931  H         14.3560   79.1400  267.0200 H     5644  MOL5644     0.2052
  29932  H         14.9640   77.6770  267.2300 H     5644  MOL5644     0.2052
  29933  O        173.4940   53.1240   73.1720 O.3   5645  MOL5645    -0.4105
  29934  H        172.5280   53.2060   73.3200 H     5645  MOL5645     0.2052
  29935  H        173.8460   54.0150   72.9150 H     5645  MOL5645     0.2052
  29936  O         15.7590   24.8770  158.3590 O.3   5646  MOL5646    -0.4105
  29937  H         16.7120   24.7240  158.1910 H     5646  MOL5646     0.2052
  29938  H         15.5900   25.8540  158.3220 H     5646  MOL5646     0.2052
  29939  O        111.4280  136.4530  218.3260 O.3   5647  MOL5647    -0.4105
  29940  H        110.8170  135.6870  218.3480 H     5647  MOL5647     0.2052
  29941  H        111.1810  137.0670  219.0650 H     5647  MOL5647     0.2052
  29942  O        126.1350   50.9420  221.7650 O.3   5648  MOL5648    -0.4105
  29943  H        126.6790   51.7570  221.7530 H     5648  MOL5648     0.2052
  29944  H        125.4210   51.0350  221.0820 H     5648  MOL5648     0.2052
  29945  O         19.7070   60.1720   28.1700 O.3   5649  MOL5649    -0.4105
  29946  H         18.8410   59.7300   28.2930 H     5649  MOL5649     0.2052
  29947  H         20.1950   60.1450   29.0330 H     5649  MOL5649     0.2052
  29948  O        199.6880    7.2890   75.4250 O.3   5650  MOL5650    -0.4105
  29949  H        199.9960    6.6450   76.0970 H     5650  MOL5650     0.2052
  29950  H        199.8080    8.2030   75.7930 H     5650  MOL5650     0.2052
  29951  O         92.3080   24.9160   18.4030 O.3   5651  MOL5651    -0.4105
  29952  H         91.6220   24.6440   19.0480 H     5651  MOL5651     0.2052
  29953  H         92.8480   25.6410   18.8120 H     5651  MOL5651     0.2052
  29954  O         11.6190  144.7110  180.9270 O.3   5652  MOL5652    -0.4105
  29955  H         11.8490  145.1870  181.7520 H     5652  MOL5652     0.2052
  29956  H         11.4420  145.3830  180.2190 H     5652  MOL5652     0.2052
  29957  O        110.3780  149.8010  291.5450 O.3   5653  MOL5653    -0.4105
  29958  H        111.2820  150.0970  291.7790 H     5653  MOL5653     0.2052
  29959  H        110.4470  148.9180  291.0980 H     5653  MOL5653     0.2052
  29960  O        161.1860   52.3340  282.3810 O.3   5654  MOL5654    -0.4105
  29961  H        161.8050   52.9880  281.9930 H     5654  MOL5654     0.2052
  29962  H        160.4430   52.8290  282.8140 H     5654  MOL5654     0.2052
  29963  O        198.2860  181.0060  138.5700 O.3   5655  MOL5655    -0.4105
  29964  H        198.8190  180.4500  137.9630 H     5655  MOL5655     0.2052
  29965  H        198.6830  181.9150  138.5880 H     5655  MOL5655     0.2052
  29966  O         59.9120   10.3340    7.6750 O.3   5656  MOL5656    -0.4105
  29967  H         59.8550   11.0880    7.0500 H     5656  MOL5656     0.2052
  29968  H         59.3960   10.5670    8.4900 H     5656  MOL5656     0.2052
  29969  O         65.3790  137.1060  217.8140 O.3   5657  MOL5657    -0.4105
  29970  H         66.1710  137.6710  217.6940 H     5657  MOL5657     0.2052
  29971  H         64.5780  137.6920  217.8270 H     5657  MOL5657     0.2052
  29972  O         28.5930  176.7900  216.7660 O.3   5658  MOL5658    -0.4105
  29973  H         27.6690  176.8260  216.4410 H     5658  MOL5658     0.2052
  29974  H         28.6660  176.0420  217.4130 H     5658  MOL5658     0.2052
  29975  O         64.8760  149.2360  286.2710 O.3   5659  MOL5659    -0.4105
  29976  H         65.3030  148.4800  285.8170 H     5659  MOL5659     0.2052
  29977  H         65.3100  150.0720  285.9570 H     5659  MOL5659     0.2052
  29978  O        187.0150  105.8580  197.2210 O.3   5660  MOL5660    -0.4105
  29979  H        186.0850  105.5660  197.3250 H     5660  MOL5660     0.2052
  29980  H        187.5950  105.0530  197.2190 H     5660  MOL5660     0.2052
  29981  O        116.0220  108.2210   60.2710 O.3   5661  MOL5661    -0.4105
  29982  H        116.4510  108.6230   59.4870 H     5661  MOL5661     0.2052
  29983  H        115.3510  108.8630   60.6200 H     5661  MOL5661     0.2052
  29984  O        186.0760   27.9960  191.7970 O.3   5662  MOL5662    -0.4105
  29985  H        185.3110   27.7570  191.2330 H     5662  MOL5662     0.2052
  29986  H        186.4700   28.8360  191.4450 H     5662  MOL5662     0.2052
  29987  O         83.6710   11.4310  134.5930 O.3   5663  MOL5663    -0.4105
  29988  H         84.4590   10.8480  134.6040 H     5663  MOL5663     0.2052
  29989  H         82.8610   10.8580  134.5680 H     5663  MOL5663     0.2052
  29990  O        135.5850  171.2730   60.9270 O.3   5664  MOL5664    -0.4105
  29991  H        136.5380  171.5000   60.9180 H     5664  MOL5664     0.2052
  29992  H        135.4980  170.2940   60.7880 H     5664  MOL5664     0.2052
  29993  O        184.2050   90.1700  220.9370 O.3   5665  MOL5665    -0.4105
  29994  H        183.4240   89.5890  220.8270 H     5665  MOL5665     0.2052
  29995  H        184.8970   89.8880  220.2840 H     5665  MOL5665     0.2052
  29996  O        167.9920    8.9410  253.3870 O.3   5666  MOL5666    -0.4105
  29997  H        168.7580    9.0780  252.7910 H     5666  MOL5666     0.2052
  29998  H        167.4270    9.7560  253.3590 H     5666  MOL5666     0.2052
  29999  O        147.5620   35.5120  188.6080 O.3   5667  MOL5667    -0.4105
  30000  H        147.0990   36.3670  188.4870 H     5667  MOL5667     0.2052
  30001  H        148.3750   35.6740  189.1540 H     5667  MOL5667     0.2052
  30002  O         99.5680   33.1680  144.4640 O.3   5668  MOL5668    -0.4105
  30003  H         98.6000   33.0980  144.3240 H     5668  MOL5668     0.2052
  30004  H         99.9820   32.3010  144.2160 H     5668  MOL5668     0.2052
  30005  O        130.2490   36.7350  266.0130 O.3   5669  MOL5669    -0.4105
  30006  H        129.9660   36.6380  265.0800 H     5669  MOL5669     0.2052
  30007  H        130.9730   37.4120  266.0490 H     5669  MOL5669     0.2052
  30008  O        118.1280  128.2610  175.4400 O.3   5670  MOL5670    -0.4105
  30009  H        117.2380  127.8510  175.4570 H     5670  MOL5670     0.2052
  30010  H        118.8040  127.5370  175.5010 H     5670  MOL5670     0.2052
  30011  O         15.7310   12.2630   80.0820 O.3   5671  MOL5671    -0.4105
  30012  H         16.1520   12.6470   80.8790 H     5671  MOL5671     0.2052
  30013  H         15.9530   11.2970   80.0470 H     5671  MOL5671     0.2052
  30014  O        157.6170  172.8070   93.6040 O.3   5672  MOL5672    -0.4105
  30015  H        157.4570  173.6140   93.0710 H     5672  MOL5672     0.2052
  30016  H        158.4600  172.3900   93.2880 H     5672  MOL5672     0.2052
  30017  O        178.9500  153.8870   10.6320 O.3   5673  MOL5673    -0.4105
  30018  H        179.2920  153.0010   10.3880 H     5673  MOL5673     0.2052
  30019  H        179.2420  154.5340    9.9390 H     5673  MOL5673     0.2052
  30020  O        153.1600  157.1020   88.6870 O.3   5674  MOL5674    -0.4105
  30021  H        152.5650  156.3240   88.6790 H     5674  MOL5674     0.2052
  30022  H        152.6110  157.9110   88.8600 H     5674  MOL5674     0.2052
  30023  O        152.8100   75.0560   96.4540 O.3   5675  MOL5675    -0.4105
  30024  H        153.5150   74.4310   96.7250 H     5675  MOL5675     0.2052
  30025  H        153.2370   75.9180   96.2090 H     5675  MOL5675     0.2052
  30026  O         79.5570    4.9790  292.7700 O.3   5676  MOL5676    -0.4105
  30027  H         79.9750    5.5260  293.4680 H     5676  MOL5676     0.2052
  30028  H         78.7220    5.4310  292.4810 H     5676  MOL5676     0.2052
  30029  O         26.6220   59.8690  277.3300 O.3   5677  MOL5677    -0.4105
  30030  H         26.9550   58.9970  277.6310 H     5677  MOL5677     0.2052
  30031  H         27.3850   60.3780  276.9520 H     5677  MOL5677     0.2052
  30032  O         29.1100  176.9160  265.8230 O.3   5678  MOL5678    -0.4105
  30033  H         28.1870  176.8990  266.1520 H     5678  MOL5678     0.2052
  30034  H         29.6560  176.3190  266.3980 H     5678  MOL5678     0.2052
  30035  O         96.1620    1.1640  173.1590 O.3   5679  MOL5679    -0.4105
  30036  H         95.2280    0.8700  173.1330 H     5679  MOL5679     0.2052
  30037  H         96.1780    2.1540  173.1010 H     5679  MOL5679     0.2052
  30038  O         21.4850  148.7540   27.4220 O.3   5680  MOL5680    -0.4105
  30039  H         21.3490  149.3200   26.6340 H     5680  MOL5680     0.2052
  30040  H         21.5930  147.8160   27.1160 H     5680  MOL5680     0.2052
  30041  O        142.1920  145.7610   64.3030 O.3   5681  MOL5681    -0.4105
  30042  H        143.0640  146.2090   64.2930 H     5681  MOL5681     0.2052
  30043  H        142.3090  144.8630   64.7080 H     5681  MOL5681     0.2052
  30044  O        193.3140  112.5470  279.3690 O.3   5682  MOL5682    -0.4105
  30045  H        192.4710  112.7540  278.9130 H     5682  MOL5682     0.2052
  30046  H        194.0130  112.4060  278.6800 H     5682  MOL5682     0.2052
  30047  O         28.5690  155.1030  283.1080 O.3   5683  MOL5683    -0.4105
  30048  H         29.4560  155.1620  283.5190 H     5683  MOL5683     0.2052
  30049  H         28.3790  154.1490  282.9140 H     5683  MOL5683     0.2052
  30050  O         59.1620  107.6860   63.6820 O.3   5684  MOL5684    -0.4105
  30051  H         59.7090  106.9890   63.2630 H     5684  MOL5684     0.2052
  30052  H         59.1090  108.4560   63.0590 H     5684  MOL5684     0.2052
  30053  O        136.6900   78.6290   73.1610 O.3   5685  MOL5685    -0.4105
  30054  H        136.5650   79.2080   73.9420 H     5685  MOL5685     0.2052
  30055  H        137.6290   78.3090   73.1600 H     5685  MOL5685     0.2052
  30056  O         12.1340   54.7070  273.6050 O.3   5686  MOL5686    -0.4105
  30057  H         11.7730   55.4610  273.0930 H     5686  MOL5686     0.2052
  30058  H         13.0030   54.9850  273.9950 H     5686  MOL5686     0.2052
  30059  O         71.9600   56.4960  222.6400 O.3   5687  MOL5687    -0.4105
  30060  H         71.0200   56.7040  222.4570 H     5687  MOL5687     0.2052
  30061  H         72.2030   55.6800  222.1300 H     5687  MOL5687     0.2052
  30062  O         64.2450   97.1910   56.8130 O.3   5688  MOL5688    -0.4105
  30063  H         64.4300   96.3020   56.4460 H     5688  MOL5688     0.2052
  30064  H         65.0670   97.7410   56.7250 H     5688  MOL5688     0.2052
  30065  O         33.5550   94.4990  164.8890 O.3   5689  MOL5689    -0.4105
  30066  H         33.3980   95.4370  164.6510 H     5689  MOL5689     0.2052
  30067  H         34.5340   94.3620  164.9800 H     5689  MOL5689     0.2052
  30068  O          4.3620   96.3520  112.3770 O.3   5690  MOL5690    -0.4105
  30069  H          3.9630   95.5440  112.7620 H     5690  MOL5690     0.2052
  30070  H          5.2390   96.5040  112.8170 H     5690  MOL5690     0.2052
  30071  O        124.9850   15.4570   84.7730 O.3   5691  MOL5691    -0.4105
  30072  H        125.8820   15.5700   84.3960 H     5691  MOL5691     0.2052
  30073  H        124.4740   14.8450   84.1820 H     5691  MOL5691     0.2052
  30074  O        129.8230   34.9460  168.2100 O.3   5692  MOL5692    -0.4105
  30075  H        129.1200   34.2650  168.2490 H     5692  MOL5692     0.2052
  30076  H        130.7000   34.4850  168.1580 H     5692  MOL5692     0.2052
  30077  O         20.2580   80.7500  181.5980 O.3   5693  MOL5693    -0.4105
  30078  H         20.8750   80.2480  181.0250 H     5693  MOL5693     0.2052
  30079  H         20.5730   81.6900  181.6450 H     5693  MOL5693     0.2052
  30080  O        164.2080   57.0640  110.0440 O.3   5694  MOL5694    -0.4105
  30081  H        165.0040   57.3370  109.5420 H     5694  MOL5694     0.2052
  30082  H        163.4260   57.1100  109.4360 H     5694  MOL5694     0.2052
  30083  O        199.0260   29.6060   87.1310 O.3   5695  MOL5695    -0.4105
  30084  H        198.4600   30.3300   86.7890 H     5695  MOL5695     0.2052
  30085  H        199.9620   29.9320   87.1630 H     5695  MOL5695     0.2052
  30086  O         62.6250   88.7010   40.9180 O.3   5696  MOL5696    -0.4105
  30087  H         62.1430   87.8480   40.9390 H     5696  MOL5696     0.2052
  30088  H         63.4650   88.5960   41.4370 H     5696  MOL5696     0.2052
  30089  O         89.3260  122.2890  246.2750 O.3   5697  MOL5697    -0.4105
  30090  H         88.8260  121.4470  246.2900 H     5697  MOL5697     0.2052
  30091  H         88.8410  122.9280  245.6900 H     5697  MOL5697     0.2052
  30092  O         51.2390   15.4890  244.9810 O.3   5698  MOL5698    -0.4105
  30093  H         51.2920   16.4650  244.9090 H     5698  MOL5698     0.2052
  30094  H         50.7410   15.2650  245.8090 H     5698  MOL5698     0.2052
  30095  O        174.8020   37.6980   33.0210 O.3   5699  MOL5699    -0.4105
  30096  H        175.4070   38.4220   33.2870 H     5699  MOL5699     0.2052
  30097  H        174.0430   37.6780   33.6600 H     5699  MOL5699     0.2052
  30098  O        175.7490  182.8480   13.3640 O.3   5700  MOL5700    -0.4105
  30099  H        175.2570  182.3200   14.0280 H     5700  MOL5700     0.2052
  30100  H        176.7020  182.5720   13.3930 H     5700  MOL5700     0.2052
  30101  O        129.7540   21.3080  148.9590 O.3   5701  MOL5701    -0.4105
  30102  H        129.5250   20.4350  149.3420 H     5701  MOL5701     0.2052
  30103  H        129.1080   21.9770  149.3040 H     5701  MOL5701     0.2052
  30104  O        164.0040   78.0690   75.8180 O.3   5702  MOL5702    -0.4105
  30105  H        164.2340   78.8620   76.3460 H     5702  MOL5702     0.2052
  30106  H        164.2240   77.2640   76.3550 H     5702  MOL5702     0.2052
  30107  O          1.9060   55.8500  134.6600 O.3   5703  MOL5703    -0.4105
  30108  H          2.2900   56.4100  133.9520 H     5703  MOL5703     0.2052
  30109  H          2.4370   55.0130  134.7160 H     5703  MOL5703     0.2052
  30110  O        114.9650   69.8940   64.0040 O.3   5704  MOL5704    -0.4105
  30111  H        114.1930   70.2450   63.5130 H     5704  MOL5704     0.2052
  30112  H        114.7330   68.9900   64.3420 H     5704  MOL5704     0.2052
  30113  O        139.6810  148.2790  195.1920 O.3   5705  MOL5705    -0.4105
  30114  H        140.4550  147.6790  195.1590 H     5705  MOL5705     0.2052
  30115  H        138.8770  147.7380  195.4050 H     5705  MOL5705     0.2052
  30116  O          1.5720    1.3890  102.1050 O.3   5706  MOL5706    -0.4105
  30117  H          2.2670    0.9040  102.5970 H     5706  MOL5706     0.2052
  30118  H          2.0100    1.9110  101.3830 H     5706  MOL5706     0.2052
  30119  O         99.7710  187.1530  193.9390 O.3   5707  MOL5707    -0.4105
  30120  H         99.0750  187.0220  193.2620 H     5707  MOL5707     0.2052
  30121  H        100.6530  187.0010  193.5100 H     5707  MOL5707     0.2052
  30122  O        150.6280   61.4740  293.3080 O.3   5708  MOL5708    -0.4105
  30123  H        149.7420   61.8040  293.0490 H     5708  MOL5708     0.2052
  30124  H        150.6480   60.4920  293.1640 H     5708  MOL5708     0.2052
  30125  O         32.9350  184.6610  237.0260 O.3   5709  MOL5709    -0.4105
  30126  H         33.7940  185.1180  237.1420 H     5709  MOL5709     0.2052
  30127  H         32.2200  185.3480  236.9920 H     5709  MOL5709     0.2052
  30128  O        189.4570  143.5760   26.8930 O.3   5710  MOL5710    -0.4105
  30129  H        189.0290  143.9810   27.6770 H     5710  MOL5710     0.2052
  30130  H        190.3960  143.3600   27.1290 H     5710  MOL5710     0.2052
  30131  O         87.3580  153.0950  265.5460 O.3   5711  MOL5711    -0.4105
  30132  H         87.0600  153.0690  266.4790 H     5711  MOL5711     0.2052
  30133  H         87.7080  154.0040  265.3570 H     5711  MOL5711     0.2052
  30134  O        165.4850  142.0290  190.5070 O.3   5712  MOL5712    -0.4105
  30135  H        166.1750  141.3540  190.3350 H     5712  MOL5712     0.2052
  30136  H        165.9300  142.9120  190.5950 H     5712  MOL5712     0.2052
  30137  O         35.1620   18.7040  269.8440 O.3   5713  MOL5713    -0.4105
  30138  H         34.8510   17.7740  269.8460 H     5713  MOL5713     0.2052
  30139  H         34.3670   19.2970  269.8420 H     5713  MOL5713     0.2052
  30140  O        155.3100  101.3210   45.7720 O.3   5714  MOL5714    -0.4105
  30141  H        155.5300  101.4560   44.8270 H     5714  MOL5714     0.2052
  30142  H        156.0360  101.7180   46.3200 H     5714  MOL5714     0.2052
  30143  O         71.0840   50.8890  240.6530 O.3   5715  MOL5715    -0.4105
  30144  H         71.6650   50.7230  239.8810 H     5715  MOL5715     0.2052
  30145  H         70.9610   51.8690  240.7440 H     5715  MOL5715     0.2052
  30146  O         16.4270   80.6260   80.1320 O.3   5716  MOL5716    -0.4105
  30147  H         15.5720   80.5880   79.6550 H     5716  MOL5716     0.2052
  30148  H         16.6470   79.7110   80.4470 H     5716  MOL5716     0.2052
  30149  O         11.2790   90.2970  127.7630 O.3   5717  MOL5717    -0.4105
  30150  H         11.0350   89.3560  127.6420 H     5717  MOL5717     0.2052
  30151  H         10.4910   90.8540  127.5320 H     5717  MOL5717     0.2052
  30152  O         72.5280   78.7580  238.5290 O.3   5718  MOL5718    -0.4105
  30153  H         72.5770   77.8590  238.9150 H     5718  MOL5718     0.2052
  30154  H         72.8910   78.7210  237.6070 H     5718  MOL5718     0.2052
  30155  O          5.0410   88.4600   14.2740 O.3   5719  MOL5719    -0.4105
  30156  H          4.3900   87.7340   14.1780 H     5719  MOL5719     0.2052
  30157  H          5.7940   88.2860   13.6510 H     5719  MOL5719     0.2052
  30158  O         57.7980  181.8600  135.0470 O.3   5720  MOL5720    -0.4105
  30159  H         57.4110  182.7190  134.7780 H     5720  MOL5720     0.2052
  30160  H         57.4670  181.1620  134.4250 H     5720  MOL5720     0.2052
  30161  O        181.5380  127.5950  170.8860 O.3   5721  MOL5721    -0.4105
  30162  H        181.3840  128.2730  170.1940 H     5721  MOL5721     0.2052
  30163  H        181.5350  128.0470  171.7690 H     5721  MOL5721     0.2052
  30164  O         51.9520  151.1240   22.7270 O.3   5722  MOL5722    -0.4105
  30165  H         51.4630  151.9730   22.7480 H     5722  MOL5722     0.2052
  30166  H         51.2940  150.3850   22.8050 H     5722  MOL5722     0.2052
  30167  O        155.9040   99.9030  126.6880 O.3   5723  MOL5723    -0.4105
  30168  H        155.4320  100.7220  126.4290 H     5723  MOL5723     0.2052
  30169  H        156.8170   99.9350  126.3000 H     5723  MOL5723     0.2052
  30170  O        162.5230   10.6830  205.2580 O.3   5724  MOL5724    -0.4105
  30171  H        163.3070   10.0960  205.2200 H     5724  MOL5724     0.2052
  30172  H        161.7100   10.1150  205.2590 H     5724  MOL5724     0.2052
  30173  O         45.5090   38.0490  223.6520 O.3   5725  MOL5725    -0.4105
  30174  H         46.4100   38.4350  223.6430 H     5725  MOL5725     0.2052
  30175  H         45.5950   37.0610  223.6760 H     5725  MOL5725     0.2052
  30176  O         17.4780  122.6590  295.5020 O.3   5726  MOL5726    -0.4105
  30177  H         16.8030  123.3680  295.5320 H     5726  MOL5726     0.2052
  30178  H         18.2340  122.9740  294.9410 H     5726  MOL5726     0.2052
  30179  O         99.4890   89.4030  177.9170 O.3   5727  MOL5727    -0.4105
  30180  H         99.7250   90.0150  177.1900 H     5727  MOL5727     0.2052
  30181  H         98.7790   89.8300  178.4640 H     5727  MOL5727     0.2052
  30182  O        127.0250   16.8420  276.8080 O.3   5728  MOL5728    -0.4105
  30183  H        127.2670   16.3540  275.9940 H     5728  MOL5728     0.2052
  30184  H        127.7720   16.7540  277.4560 H     5728  MOL5728     0.2052
  30185  O         12.3950   15.6250  293.9270 O.3   5729  MOL5729    -0.4105
  30186  H         12.2220   14.8800  293.3150 H     5729  MOL5729     0.2052
  30187  H         11.5240   15.9520  294.2720 H     5729  MOL5729     0.2052
  30188  O        176.1250   56.0490  265.0630 O.3   5730  MOL5730    -0.4105
  30189  H        176.0770   56.9010  265.5440 H     5730  MOL5730     0.2052
  30190  H        175.3830   56.0210  264.4050 H     5730  MOL5730     0.2052
  30191  O         76.9490  126.5210  180.5350 O.3   5731  MOL5731    -0.4105
  30192  H         77.3240  126.2560  181.4010 H     5731  MOL5731     0.2052
  30193  H         77.4530  126.0510  179.8220 H     5731  MOL5731     0.2052
  30194  O        192.1300   25.4910   76.7090 O.3   5732  MOL5732    -0.4105
  30195  H        191.8690   24.5470   76.6910 H     5732  MOL5732     0.2052
  30196  H        192.7550   25.6550   75.9570 H     5732  MOL5732     0.2052
  30197  O          1.2760   30.6110  218.5510 O.3   5733  MOL5733    -0.4105
  30198  H          1.8580   29.9000  218.8920 H     5733  MOL5733     0.2052
  30199  H          0.3720   30.4870  218.9410 H     5733  MOL5733     0.2052
  30200  O          7.2820  180.7070  136.0460 O.3   5734  MOL5734    -0.4105
  30201  H          6.4760  180.1510  136.0910 H     5734  MOL5734     0.2052
  30202  H          8.0730  180.1070  136.0320 H     5734  MOL5734     0.2052
  30203  O         13.3440   86.2900  154.9720 O.3   5735  MOL5735    -0.4105
  30204  H         13.1420   86.5370  155.8990 H     5735  MOL5735     0.2052
  30205  H         13.0040   85.3710  154.8150 H     5735  MOL5735     0.2052
  30206  O        195.2670   19.0300  268.5770 O.3   5736  MOL5736    -0.4105
  30207  H        195.5010   19.9530  268.8080 H     5736  MOL5736     0.2052
  30208  H        196.1040   18.4970  268.5410 H     5736  MOL5736     0.2052
  30209  O         17.1870  131.6330   45.1050 O.3   5737  MOL5737    -0.4105
  30210  H         16.7900  131.3450   45.9530 H     5737  MOL5737     0.2052
  30211  H         17.0170  132.6050   44.9970 H     5737  MOL5737     0.2052
  30212  O         14.3010  134.5360   53.8650 O.3   5738  MOL5738    -0.4105
  30213  H         14.6730  135.4120   54.0970 H     5738  MOL5738     0.2052
  30214  H         15.0070  134.0110   53.4040 H     5738  MOL5738     0.2052
  30215  O        108.4830   62.0670   46.8990 O.3   5739  MOL5739    -0.4105
  30216  H        108.2220   62.9740   46.6370 H     5739  MOL5739     0.2052
  30217  H        107.6810   61.4850   46.8420 H     5739  MOL5739     0.2052
  30218  O        185.3190  192.4680   57.9450 O.3   5740  MOL5740    -0.4105
  30219  H        185.1130  193.3940   58.1910 H     5740  MOL5740     0.2052
  30220  H        186.0950  192.4770   57.3260 H     5740  MOL5740     0.2052
  30221  O         78.8280  170.9370   53.7810 O.3   5741  MOL5741    -0.4105
  30222  H         78.8180  170.7760   54.7480 H     5741  MOL5741     0.2052
  30223  H         79.7710  170.9140   53.4720 H     5741  MOL5741     0.2052
  30224  O        166.6400   17.9150   51.3830 O.3   5742  MOL5742    -0.4105
  30225  H        166.8810   17.7920   50.4410 H     5742  MOL5742     0.2052
  30226  H        166.5940   18.8880   51.5680 H     5742  MOL5742     0.2052
  30227  O        173.2300   17.0820  198.2840 O.3   5743  MOL5743    -0.4105
  30228  H        172.4980   16.7900  197.7020 H     5743  MOL5743     0.2052
  30229  H        173.4630   18.0160  198.0450 H     5743  MOL5743     0.2052
  30230  O         35.9560  150.9100   24.9390 O.3   5744  MOL5744    -0.4105
  30231  H         35.5400  151.7560   25.2090 H     5744  MOL5744     0.2052
  30232  H         35.2380  150.2350   24.8230 H     5744  MOL5744     0.2052
  30233  O         18.0840  176.1680  101.2230 O.3   5745  MOL5745    -0.4105
  30234  H         17.2080  176.5720  101.3930 H     5745  MOL5745     0.2052
  30235  H         18.1090  175.2820  101.6680 H     5745  MOL5745     0.2052
  30236  O        197.9530   26.1240   70.6100 O.3   5746  MOL5746    -0.4105
  30237  H        197.0600   25.7300   70.7050 H     5746  MOL5746     0.2052
  30238  H        198.2800   25.9330   69.6930 H     5746  MOL5746     0.2052
  30239  O        193.9130   66.9200   43.3750 O.3   5747  MOL5747    -0.4105
  30240  H        193.7040   67.8680   43.2370 H     5747  MOL5747     0.2052
  30241  H        194.8980   66.8080   43.3190 H     5747  MOL5747     0.2052
  30242  O        152.5340   40.8500  229.0180 O.3   5748  MOL5748    -0.4105
  30243  H        152.9290   40.3190  229.7400 H     5748  MOL5748     0.2052
  30244  H        153.1870   41.5480  228.7530 H     5748  MOL5748     0.2052
  30245  O        186.8500  185.5790  299.1860 O.3   5749  MOL5749    -0.4105
  30246  H        185.9390  185.8110  298.9090 H     5749  MOL5749     0.2052
  30247  H        187.2460  186.3670  299.6410 H     5749  MOL5749     0.2052
  30248  O         76.1500  189.5350   91.0700 O.3   5750  MOL5750    -0.4105
  30249  H         76.3800  188.9680   91.8350 H     5750  MOL5750     0.2052
  30250  H         75.9910  190.4560   91.4020 H     5750  MOL5750     0.2052
  30251  O        111.0730   79.3230   65.8570 O.3   5751  MOL5751    -0.4105
  30252  H        110.3150   78.7470   65.6240 H     5751  MOL5751     0.2052
  30253  H        110.7180   80.1470   66.2810 H     5751  MOL5751     0.2052
  30254  O         60.7130  142.6980  217.4920 O.3   5752  MOL5752    -0.4105
  30255  H         60.1940  142.6150  218.3200 H     5752  MOL5752     0.2052
  30256  H         60.0960  142.9720  216.7650 H     5752  MOL5752     0.2052
  30257  O        154.9860   72.8200   27.2520 O.3   5753  MOL5753    -0.4105
  30258  H        154.1420   73.2460   26.9940 H     5753  MOL5753     0.2052
  30259  H        155.7300   73.4260   27.0020 H     5753  MOL5753     0.2052
  30260  O        191.2900  158.1970  171.0660 O.3   5754  MOL5754    -0.4105
  30261  H        191.6280  159.1140  170.9870 H     5754  MOL5754     0.2052
  30262  H        192.0660  157.5780  171.0520 H     5754  MOL5754     0.2052
  30263  O        142.1200   34.7280   86.1410 O.3   5755  MOL5755    -0.4105
  30264  H        142.7880   35.4450   86.1230 H     5755  MOL5755     0.2052
  30265  H        141.2230   35.1420   86.2390 H     5755  MOL5755     0.2052
  30266  O        174.6150  108.5410  195.2080 O.3   5756  MOL5756    -0.4105
  30267  H        175.5650  108.7720  195.1470 H     5756  MOL5756     0.2052
  30268  H        174.0850  109.3730  195.0930 H     5756  MOL5756     0.2052
  30269  O          5.4690   94.6950  154.3810 O.3   5757  MOL5757    -0.4105
  30270  H          5.9070   93.8220  154.3090 H     5757  MOL5757     0.2052
  30271  H          6.1640   95.3760  154.5770 H     5757  MOL5757     0.2052
  30272  O         35.1080  150.9510    2.4990 O.3   5758  MOL5758    -0.4105
  30273  H         35.8770  150.3590    2.6310 H     5758  MOL5758     0.2052
  30274  H         35.1310  151.2870    1.5650 H     5758  MOL5758     0.2052
  30275  O        125.4900   95.3760  255.3650 O.3   5759  MOL5759    -0.4105
  30276  H        125.6520   94.5960  254.7960 H     5759  MOL5759     0.2052
  30277  H        125.2440   96.1410  254.7820 H     5759  MOL5759     0.2052
  30278  O         30.2790  118.8830   65.5470 O.3   5760  MOL5760    -0.4105
  30279  H         29.4040  118.8200   65.1120 H     5760  MOL5760     0.2052
  30280  H         30.1720  118.6230   66.4990 H     5760  MOL5760     0.2052
  30281  O         34.0150  180.7610  267.3150 O.3   5761  MOL5761    -0.4105
  30282  H         33.7300  181.6350  266.9760 H     5761  MOL5761     0.2052
  30283  H         34.7580  180.4340  266.7440 H     5761  MOL5761     0.2052
  30284  O        168.2450  110.4790  240.9490 O.3   5762  MOL5762    -0.4105
  30285  H        168.4490  109.5290  241.0830 H     5762  MOL5762     0.2052
  30286  H        169.0620  111.0030  241.1530 H     5762  MOL5762     0.2052
  30287  O         55.9330    0.3690   77.2070 O.3   5763  MOL5763    -0.4105
  30288  H         55.2150    0.0080   76.6460 H     5763  MOL5763     0.2052
  30289  H         56.3040    1.1720   76.7570 H     5763  MOL5763     0.2052
  30290  O        135.4590  126.8830  264.4640 O.3   5764  MOL5764    -0.4105
  30291  H        135.4400  126.5970  263.5270 H     5764  MOL5764     0.2052
  30292  H        135.2890  127.8600  264.4940 H     5764  MOL5764     0.2052
  30293  O        170.7440  169.7230   85.4710 O.3   5765  MOL5765    -0.4105
  30294  H        170.7700  170.6060   85.8960 H     5765  MOL5765     0.2052
  30295  H        171.4220  169.7080   84.7470 H     5765  MOL5765     0.2052
  30296  O         50.1360    9.4330  141.5810 O.3   5766  MOL5766    -0.4105
  30297  H         50.0480    8.4820  141.7990 H     5766  MOL5766     0.2052
  30298  H         49.6750    9.9570  142.2870 H     5766  MOL5766     0.2052
  30299  O        148.3060    0.8110   88.0230 O.3   5767  MOL5767    -0.4105
  30300  H        147.7660    0.4660   87.2820 H     5767  MOL5767     0.2052
  30301  H        149.2630    0.6780   87.7980 H     5767  MOL5767     0.2052
  30302  O         25.9870  119.6120  277.9210 O.3   5768  MOL5768    -0.4105
  30303  H         25.4470  118.7940  277.9150 H     5768  MOL5768     0.2052
  30304  H         26.1460  119.8730  278.8650 H     5768  MOL5768     0.2052
  30305  O        100.5640  110.5260  249.3090 O.3   5769  MOL5769    -0.4105
  30306  H        100.9370  109.6900  249.6590 H     5769  MOL5769     0.2052
  30307  H         99.8880  110.2990  248.6190 H     5769  MOL5769     0.2052
  30308  O        181.8390   23.1470  178.4500 O.3   5770  MOL5770    -0.4105
  30309  H        181.0150   22.7800  178.8330 H     5770  MOL5770     0.2052
  30310  H        181.6160   23.5650  177.5780 H     5770  MOL5770     0.2052
  30311  O         28.1340    5.9160   38.2810 O.3   5771  MOL5771    -0.4105
  30312  H         27.5440    5.6500   37.5460 H     5771  MOL5771     0.2052
  30313  H         28.9980    5.4400   38.1730 H     5771  MOL5771     0.2052
  30314  O          8.2960  164.0740  265.7050 O.3   5772  MOL5772    -0.4105
  30315  H          8.7470  163.4080  266.2660 H     5772  MOL5772     0.2052
  30316  H          7.5080  163.6430  265.2840 H     5772  MOL5772     0.2052
  30317  O         38.2200  148.0750  124.4840 O.3   5773  MOL5773    -0.4105
  30318  H         38.5370  148.0940  123.5570 H     5773  MOL5773     0.2052
  30319  H         38.5980  147.2690  124.9240 H     5773  MOL5773     0.2052
  30320  O         19.2910   31.2270  184.7340 O.3   5774  MOL5774    -0.4105
  30321  H         19.6770   31.9370  184.1800 H     5774  MOL5774     0.2052
  30322  H         19.4840   30.3550  184.2990 H     5774  MOL5774     0.2052
  30323  O         49.3020  123.5220   33.8010 O.3   5775  MOL5775    -0.4105
  30324  H         49.9590  123.6860   34.5090 H     5775  MOL5775     0.2052
  30325  H         49.3990  124.2330   33.1160 H     5775  MOL5775     0.2052
  30326  O         63.8130   42.8950   34.8050 O.3   5776  MOL5776    -0.4105
  30327  H         63.2370   42.1050   34.8680 H     5776  MOL5776     0.2052
  30328  H         64.3100   42.8490   33.9470 H     5776  MOL5776     0.2052
  30329  O        134.6720  124.2120  289.8650 O.3   5777  MOL5777    -0.4105
  30330  H        135.2430  124.7370  290.4630 H     5777  MOL5777     0.2052
  30331  H        135.2430  123.8220  289.1530 H     5777  MOL5777     0.2052
  30332  O        147.7190  199.4520   22.0340 O.3   5778  MOL5778    -0.4105
  30333  H        148.1330  199.9990   22.7340 H     5778  MOL5778     0.2052
  30334  H        146.8180  199.1760   22.3480 H     5778  MOL5778     0.2052
  30335  O        167.5750   20.5400  149.2990 O.3   5779  MOL5779    -0.4105
  30336  H        168.3460   20.7620  149.8620 H     5779  MOL5779     0.2052
  30337  H        167.3260   19.5950  149.4720 H     5779  MOL5779     0.2052
  30338  O         89.7440   88.2380  275.8390 O.3   5780  MOL5780    -0.4105
  30339  H         89.4110   89.1340  275.6220 H     5780  MOL5780     0.2052
  30340  H         90.4580   88.0070  275.1890 H     5780  MOL5780     0.2052
  30341  O        114.2210  158.0290  274.6080 O.3   5781  MOL5781    -0.4105
  30342  H        115.1640  158.2970  274.6210 H     5781  MOL5781     0.2052
  30343  H        114.1800  157.0390  274.5630 H     5781  MOL5781     0.2052
  30344  O        187.0600   96.3790  139.8350 O.3   5782  MOL5782    -0.4105
  30345  H        187.1720   95.4150  139.9710 H     5782  MOL5782     0.2052
  30346  H        187.8620   96.8390  140.1950 H     5782  MOL5782     0.2052
  30347  O        163.0840  191.0440  227.2230 O.3   5783  MOL5783    -0.4105
  30348  H        162.1610  190.9560  226.9060 H     5783  MOL5783     0.2052
  30349  H        163.2230  191.9800  227.5210 H     5783  MOL5783     0.2052
  30350  O        151.1370   47.5800   59.1860 O.3   5784  MOL5784    -0.4105
  30351  H        150.4320   47.9610   59.7500 H     5784  MOL5784     0.2052
  30352  H        151.8170   48.2830   59.0200 H     5784  MOL5784     0.2052
  30353  O         59.7850   25.6240    6.6770 O.3   5785  MOL5785    -0.4105
  30354  H         59.5650   25.2950    7.5730 H     5785  MOL5785     0.2052
  30355  H         59.9390   26.6030    6.7350 H     5785  MOL5785     0.2052
  30356  O          5.0970  163.4540   65.7300 O.3   5786  MOL5786    -0.4105
  30357  H          4.6600  163.6420   66.5870 H     5786  MOL5786     0.2052
  30358  H          4.9080  164.2090   65.1130 H     5786  MOL5786     0.2052
  30359  O          6.8800  162.6600   52.8120 O.3   5787  MOL5787    -0.4105
  30360  H          6.2840  161.8830   52.8570 H     5787  MOL5787     0.2052
  30361  H          7.8120  162.3310   52.7260 H     5787  MOL5787     0.2052
  30362  O         41.8380  185.0650   68.9570 O.3   5788  MOL5788    -0.4105
  30363  H         41.9090  186.0420   68.9690 H     5788  MOL5788     0.2052
  30364  H         40.9160  184.8170   69.2290 H     5788  MOL5788     0.2052
  30365  O        165.7000   79.8780  179.0260 O.3   5789  MOL5789    -0.4105
  30366  H        166.0300   80.4880  178.3340 H     5789  MOL5789     0.2052
  30367  H        165.4720   80.4130  179.8300 H     5789  MOL5789     0.2052
  30368  O        139.4880   63.3640   21.6770 O.3   5790  MOL5790    -0.4105
  30369  H        138.5960   63.5200   21.3040 H     5790  MOL5790     0.2052
  30370  H        139.5520   62.4100   21.9410 H     5790  MOL5790     0.2052
  30371  O         51.2950   53.0300  264.8640 O.3   5791  MOL5791    -0.4105
  30372  H         52.1490   52.5630  264.9770 H     5791  MOL5791     0.2052
  30373  H         51.4700   54.0060  264.8800 H     5791  MOL5791     0.2052
  30374  O        181.2970  142.3170  143.9330 O.3   5792  MOL5792    -0.4105
  30375  H        181.7940  141.4870  144.0900 H     5792  MOL5792     0.2052
  30376  H        180.8390  142.2430  143.0560 H     5792  MOL5792     0.2052
  30377  O         33.9870  133.0630   11.3040 O.3   5793  MOL5793    -0.4105
  30378  H         33.9410  132.2010   10.8390 H     5793  MOL5793     0.2052
  30379  H         33.1510  133.5630   11.1150 H     5793  MOL5793     0.2052
  30380  O        121.4020  174.4840   33.9830 O.3   5794  MOL5794    -0.4105
  30381  H        121.0120  173.7420   33.4770 H     5794  MOL5794     0.2052
  30382  H        120.6690  174.9550   34.4590 H     5794  MOL5794     0.2052
  30383  O        157.9760   53.1850    1.6850 O.3   5795  MOL5795    -0.4105
  30384  H        158.4540   52.3880    1.3740 H     5795  MOL5795     0.2052
  30385  H        157.0350   52.9290    1.8720 H     5795  MOL5795     0.2052
  30386  O        137.2460   10.3650  106.1830 O.3   5796  MOL5796    -0.4105
  30387  H        137.4700   11.3160  106.2540 H     5796  MOL5796     0.2052
  30388  H        138.0730    9.8680  105.9500 H     5796  MOL5796     0.2052
  30389  O         47.2720  120.1720  265.6400 O.3   5797  MOL5797    -0.4105
  30390  H         46.3810  120.5120  265.4130 H     5797  MOL5797     0.2052
  30391  H         47.5250  120.5340  266.5280 H     5797  MOL5797     0.2052
  30392  O        152.8030   98.4490  255.4280 O.3   5798  MOL5798    -0.4105
  30393  H        153.1170   99.0140  254.6910 H     5798  MOL5798     0.2052
  30394  H        151.8670   98.7040  255.6370 H     5798  MOL5798     0.2052
  30395  O         39.1060    5.7800   14.2450 O.3   5799  MOL5799    -0.4105
  30396  H         38.4050    6.4470   14.4010 H     5799  MOL5799     0.2052
  30397  H         38.7360    4.8850   14.4590 H     5799  MOL5799     0.2052
  30398  O         42.9570   77.4510  201.9630 O.3   5800  MOL5800    -0.4105
  30399  H         43.1040   77.9370  202.8020 H     5800  MOL5800     0.2052
  30400  H         43.0190   76.4790  202.1530 H     5800  MOL5800     0.2052
  30401  O        144.0410   38.2570   83.8770 O.3   5801  MOL5801    -0.4105
  30402  H        143.7740   37.4800   83.3430 H     5801  MOL5801     0.2052
  30403  H        143.2510   38.8470   83.9830 H     5801  MOL5801     0.2052
  30404  O        158.1700   89.4380    6.9460 O.3   5802  MOL5802    -0.4105
  30405  H        158.5420   88.5310    6.9400 H     5802  MOL5802     0.2052
  30406  H        158.4810   89.8950    7.7690 H     5802  MOL5802     0.2052
  30407  O         34.8770  146.9000  123.9470 O.3   5803  MOL5803    -0.4105
  30408  H         35.4760  146.7780  123.1810 H     5803  MOL5803     0.2052
  30409  H         34.0390  147.3200  123.6210 H     5803  MOL5803     0.2052
  30410  O         18.4040   12.0970  151.1170 O.3   5804  MOL5804    -0.4105
  30411  H         17.7910   12.8440  151.2810 H     5804  MOL5804     0.2052
  30412  H         17.8870   11.3530  150.7140 H     5804  MOL5804     0.2052
  30413  O        154.6700   64.6080   58.2360 O.3   5805  MOL5805    -0.4105
  30414  H        153.8210   64.1290   58.3360 H     5805  MOL5805     0.2052
  30415  H        155.1570   64.5610   59.0990 H     5805  MOL5805     0.2052
  30416  O         43.3960  106.2670  290.2510 O.3   5806  MOL5806    -0.4105
  30417  H         43.7850  106.2800  291.1500 H     5806  MOL5806     0.2052
  30418  H         43.6230  107.1220  289.8020 H     5806  MOL5806     0.2052
  30419  O         87.6880   93.1980  241.2130 O.3   5807  MOL5807    -0.4105
  30420  H         88.3330   92.5170  240.9320 H     5807  MOL5807     0.2052
  30421  H         87.5930   93.1490  242.1990 H     5807  MOL5807     0.2052
  30422  O        135.5810  185.9550  179.8740 O.3   5808  MOL5808    -0.4105
  30423  H        136.3920  186.5040  179.8630 H     5808  MOL5808     0.2052
  30424  H        135.6170  185.3630  180.6700 H     5808  MOL5808     0.2052
  30425  O         19.1270   97.1280   54.0070 O.3   5809  MOL5809    -0.4105
  30426  H         18.5000   96.8330   54.6990 H     5809  MOL5809     0.2052
  30427  H         18.6240   97.6650   53.3410 H     5809  MOL5809     0.2052
  30428  O        199.7870   59.9980   66.4440 O.3   5810  MOL5810    -0.4105
  30429  H        199.5270   60.7510   65.8740 H     5810  MOL5810     0.2052
  30430  H        198.9830   59.4410   66.6100 H     5810  MOL5810     0.2052
  30431  O        192.6760    0.0360  177.7540 O.3   5811  MOL5811    -0.4105
  30432  H        193.4370    0.6130  177.5360 H     5811  MOL5811     0.2052
  30433  H        192.0280    0.5650  178.2880 H     5811  MOL5811     0.2052
  30434  O        153.9510  124.0600   76.1920 O.3   5812  MOL5812    -0.4105
  30435  H        154.8010  123.5980   76.3470 H     5812  MOL5812     0.2052
  30436  H        153.3020  123.4030   75.8270 H     5812  MOL5812     0.2052
  30437  O         95.3730  193.7340   13.6510 O.3   5813  MOL5813    -0.4105
  30438  H         94.5490  193.7600   13.1220 H     5813  MOL5813     0.2052
  30439  H         95.2770  193.0280   14.3420 H     5813  MOL5813     0.2052
  30440  O         89.8440   54.9750   20.6680 O.3   5814  MOL5814    -0.4105
  30441  H         90.2300   55.8480   20.8910 H     5814  MOL5814     0.2052
  30442  H         88.8560   55.0670   20.6590 H     5814  MOL5814     0.2052
  30443  O        109.0200  155.3410   40.1820 O.3   5815  MOL5815    -0.4105
  30444  H        108.8330  155.9900   39.4720 H     5815  MOL5815     0.2052
  30445  H        108.1590  154.9460   40.4770 H     5815  MOL5815     0.2052
  30446  O         80.2320  172.2370  163.7390 O.3   5816  MOL5816    -0.4105
  30447  H         79.6750  173.0440  163.7210 H     5816  MOL5816     0.2052
  30448  H         79.6320  171.4470  163.7490 H     5816  MOL5816     0.2052
  30449  O         47.0180   28.3810   47.0100 O.3   5817  MOL5817    -0.4105
  30450  H         46.8650   27.4920   46.6260 H     5817  MOL5817     0.2052
  30451  H         46.7390   28.3600   47.9620 H     5817  MOL5817     0.2052
  30452  O        152.1270   73.9640  272.2070 O.3   5818  MOL5818    -0.4105
  30453  H        152.3570   74.4830  271.4090 H     5818  MOL5818     0.2052
  30454  H        152.9060   73.3970  272.4450 H     5818  MOL5818     0.2052
  30455  O         89.5480   91.1630  218.9370 O.3   5819  MOL5819    -0.4105
  30456  H         89.0560   92.0110  218.9500 H     5819  MOL5819     0.2052
  30457  H         90.5150   91.3660  218.8450 H     5819  MOL5819     0.2052
  30458  O        118.5170  154.8150   51.4000 O.3   5820  MOL5820    -0.4105
  30459  H        119.1360  154.1760   51.8120 H     5820  MOL5820     0.2052
  30460  H        118.7420  155.7230   51.7300 H     5820  MOL5820     0.2052
  30461  O         65.9960  176.2780  299.4210 O.3   5821  MOL5821    -0.4105
  30462  H         65.2580  176.9200  299.3590 H     5821  MOL5821     0.2052
  30463  H         66.8440  176.7620  299.2460 H     5821  MOL5821     0.2052
  30464  O        146.9060  191.1460   22.2290 O.3   5822  MOL5822    -0.4105
  30465  H        145.9860  191.4590   22.3560 H     5822  MOL5822     0.2052
  30466  H        146.8890  190.1570   22.1470 H     5822  MOL5822     0.2052
  30467  O        116.0790   27.9770   26.8960 O.3   5823  MOL5823    -0.4105
  30468  H        115.9350   28.8990   26.5950 H     5823  MOL5823     0.2052
  30469  H        116.1670   27.9840   27.8840 H     5823  MOL5823     0.2052
  30470  O         20.1270   55.0930   81.0060 O.3   5824  MOL5824    -0.4105
  30471  H         20.7180   54.4170   81.3980 H     5824  MOL5824     0.2052
  30472  H         20.5890   55.4960   80.2260 H     5824  MOL5824     0.2052
  30473  O        104.6370   87.6550  166.9280 O.3   5825  MOL5825    -0.4105
  30474  H        104.0300   88.2500  167.4170 H     5825  MOL5825     0.2052
  30475  H        104.2250   86.7530  166.8920 H     5825  MOL5825     0.2052
  30476  O         89.9110   12.6600  183.1220 O.3   5826  MOL5826    -0.4105
  30477  H         90.0380   12.4470  182.1740 H     5826  MOL5826     0.2052
  30478  H         90.3110   13.5510  183.2970 H     5826  MOL5826     0.2052
  30479  O         69.7230   97.1790    5.0100 O.3   5827  MOL5827    -0.4105
  30480  H         69.2590   96.5250    4.4470 H     5827  MOL5827     0.2052
  30481  H         69.5330   98.0860    4.6550 H     5827  MOL5827     0.2052
  30482  O        172.1070   67.9620  297.5840 O.3   5828  MOL5828    -0.4105
  30483  H        172.6690   67.2560  297.9660 H     5828  MOL5828     0.2052
  30484  H        171.1850   67.6080  297.4890 H     5828  MOL5828     0.2052
  30485  O        199.0990   27.4390  286.0180 O.3   5829  MOL5829    -0.4105
  30486  H        199.9990   27.0790  286.1580 H     5829  MOL5829     0.2052
  30487  H        199.1070   28.4010  286.2630 H     5829  MOL5829     0.2052
  30488  O        194.0490   60.1590  187.6300 O.3   5830  MOL5830    -0.4105
  30489  H        194.6250   60.5580  188.3150 H     5830  MOL5830     0.2052
  30490  H        193.6490   59.3310  188.0040 H     5830  MOL5830     0.2052
  30491  O        195.8310   32.7530  172.1560 O.3   5831  MOL5831    -0.4105
  30492  H        195.7990   32.8600  171.1830 H     5831  MOL5831     0.2052
  30493  H        195.1510   33.3540  172.5580 H     5831  MOL5831     0.2052
  30494  O        111.9290   45.8970  127.5060 O.3   5832  MOL5832    -0.4105
  30495  H        111.5340   45.0100  127.6370 H     5832  MOL5832     0.2052
  30496  H        111.1980   46.5680  127.5230 H     5832  MOL5832     0.2052
  30497  O        146.5190   79.2220  237.7670 O.3   5833  MOL5833    -0.4105
  30498  H        145.6260   79.4140  238.1220 H     5833  MOL5833     0.2052
  30499  H        146.9670   78.5840  238.3810 H     5833  MOL5833     0.2052
  30500  O         62.6600   39.9800  227.9520 O.3   5834  MOL5834    -0.4105
  30501  H         61.9690   39.7240  227.3060 H     5834  MOL5834     0.2052
  30502  H         63.0300   39.1520  228.3540 H     5834  MOL5834     0.2052
  30503  O        110.5430  108.4520  265.2810 O.3   5835  MOL5835    -0.4105
  30504  H        110.4200  107.6930  265.8890 H     5835  MOL5835     0.2052
  30505  H        109.6800  108.9360  265.2100 H     5835  MOL5835     0.2052
  30506  O         50.0370  171.9280  292.3720 O.3   5836  MOL5836    -0.4105
  30507  H         49.5380  172.7720  292.3740 H     5836  MOL5836     0.2052
  30508  H         51.0060  172.1410  292.3600 H     5836  MOL5836     0.2052
  30509  O        192.9020  129.9810  113.6050 O.3   5837  MOL5837    -0.4105
  30510  H        193.2010  130.5660  112.8780 H     5837  MOL5837     0.2052
  30511  H        193.2150  129.0600  113.4110 H     5837  MOL5837     0.2052
  30512  O         11.0270   76.0260   70.9080 O.3   5838  MOL5838    -0.4105
  30513  H         11.3370   75.1090   70.7550 H     5838  MOL5838     0.2052
  30514  H         10.7630   76.1090   71.8610 H     5838  MOL5838     0.2052
  30515  O        110.6300   33.1560  291.5100 O.3   5839  MOL5839    -0.4105
  30516  H        110.3190   32.2270  291.4730 H     5839  MOL5839     0.2052
  30517  H        109.9150   33.7060  291.9230 H     5839  MOL5839     0.2052
  30518  O        117.6720    7.9650  132.9850 O.3   5840  MOL5840    -0.4105
  30519  H        116.7770    7.8740  133.3740 H     5840  MOL5840     0.2052
  30520  H        117.7420    7.3390  132.2180 H     5840  MOL5840     0.2052
  30521  O        107.3020  104.8240  196.3260 O.3   5841  MOL5841    -0.4105
  30522  H        106.7250  104.0340  196.3830 H     5841  MOL5841     0.2052
  30523  H        107.8900  104.8380  197.1260 H     5841  MOL5841     0.2052
  30524  O         68.3790   82.4010  176.3950 O.3   5842  MOL5842    -0.4105
  30525  H         68.2180   82.0730  175.4860 H     5842  MOL5842     0.2052
  30526  H         68.1340   81.6810  177.0330 H     5842  MOL5842     0.2052
  30527  O        150.7290  174.4610  199.8670 O.3   5843  MOL5843    -0.4105
  30528  H        149.8080  174.3270  199.5580 H     5843  MOL5843     0.2052
  30529  H        151.3130  174.5500  199.0700 H     5843  MOL5843     0.2052
  30530  O         19.8190   66.1170  236.4850 O.3   5844  MOL5844    -0.4105
  30531  H         20.3670   66.9290  236.4780 H     5844  MOL5844     0.2052
  30532  H         18.9300   66.3450  236.8630 H     5844  MOL5844     0.2052
  30533  O        131.9250   15.1300  265.1810 O.3   5845  MOL5845    -0.4105
  30534  H        131.3780   14.9680  265.9780 H     5845  MOL5845     0.2052
  30535  H        132.7550   14.5910  265.2600 H     5845  MOL5845     0.2052
  30536  O        185.2860   52.6490  192.7850 O.3   5846  MOL5846    -0.4105
  30537  H        184.9310   53.3980  192.2620 H     5846  MOL5846     0.2052
  30538  H        185.0770   51.8080  192.3040 H     5846  MOL5846     0.2052
  30539  O        167.3770   62.3370    7.7320 O.3   5847  MOL5847    -0.4105
  30540  H        167.6650   61.5320    8.2120 H     5847  MOL5847     0.2052
  30541  H        167.3690   63.0940    8.3740 H     5847  MOL5847     0.2052
  30542  O          0.5540  131.4910    7.6370 O.3   5848  MOL5848    -0.4105
  30543  H          0.0030  130.6870    7.5350 H     5848  MOL5848     0.2052
  30544  H          1.5060  131.2280    7.5480 H     5848  MOL5848     0.2052
  30545  O        115.6310  179.3220  240.2720 O.3   5849  MOL5849    -0.4105
  30546  H        116.4620  179.3720  239.7550 H     5849  MOL5849     0.2052
  30547  H        115.8320  179.5870  241.2070 H     5849  MOL5849     0.2052
  30548  O         32.8850   27.3590  219.7650 O.3   5850  MOL5850    -0.4105
  30549  H         33.4110   26.9500  220.4840 H     5850  MOL5850     0.2052
  30550  H         33.5140   27.7550  219.1070 H     5850  MOL5850     0.2052
  30551  O        170.3910   67.8470  143.6440 O.3   5851  MOL5851    -0.4105
  30552  H        171.0690   68.5540  143.6200 H     5851  MOL5851     0.2052
  30553  H        170.4360   67.4040  144.5320 H     5851  MOL5851     0.2052
  30554  O        160.8840  158.2650   88.1230 O.3   5852  MOL5852    -0.4105
  30555  H        161.5000  158.4380   87.3800 H     5852  MOL5852     0.2052
  30556  H        160.2740  159.0430   88.2070 H     5852  MOL5852     0.2052
  30557  O         22.2980  157.3290   75.5130 O.3   5853  MOL5853    -0.4105
  30558  H         22.8210  157.5560   76.3100 H     5853  MOL5853     0.2052
  30559  H         21.7950  156.4940   75.6990 H     5853  MOL5853     0.2052
  30560  O        144.6800  166.4880   43.1440 O.3   5854  MOL5854    -0.4105
  30561  H        144.0410  165.8270   43.4850 H     5854  MOL5854     0.2052
  30562  H        145.2610  166.0400   42.4760 H     5854  MOL5854     0.2052
  30563  O        183.5930  126.2520  109.8290 O.3   5855  MOL5855    -0.4105
  30564  H        183.4890  125.2790  109.7730 H     5855  MOL5855     0.2052
  30565  H        184.4100  126.4470  110.3570 H     5855  MOL5855     0.2052
  30566  O        136.6190   96.4470  196.3240 O.3   5856  MOL5856    -0.4105
  30567  H        135.9150   96.6870  196.9630 H     5856  MOL5856     0.2052
  30568  H        137.1870   95.7460  196.7370 H     5856  MOL5856     0.2052
  30569  O         71.6410  101.3290  221.5920 O.3   5857  MOL5857    -0.4105
  30570  H         71.5470  102.3040  221.6260 H     5857  MOL5857     0.2052
  30571  H         72.6010  101.1060  221.7060 H     5857  MOL5857     0.2052
  30572  O        192.7630   11.3490  214.6780 O.3   5858  MOL5858    -0.4105
  30573  H        191.7980   11.4600  214.8060 H     5858  MOL5858     0.2052
  30574  H        192.9180   10.4860  214.2130 H     5858  MOL5858     0.2052
  30575  O         60.5690  175.3300  182.5130 O.3   5859  MOL5859    -0.4105
  30576  H         61.4190  175.8130  182.4410 H     5859  MOL5859     0.2052
  30577  H         59.8340  175.9960  182.5330 H     5859  MOL5859     0.2052
  30578  O         23.8890   57.6780   14.9620 O.3   5860  MOL5860    -0.4105
  30579  H         24.4260   57.5920   14.1470 H     5860  MOL5860     0.2052
  30580  H         24.4870   57.9640   15.7000 H     5860  MOL5860     0.2052
  30581  O         38.6390   82.5520   56.3330 O.3   5861  MOL5861    -0.4105
  30582  H         39.2260   83.0900   56.9050 H     5861  MOL5861     0.2052
  30583  H         38.7740   82.8390   55.3930 H     5861  MOL5861     0.2052
  30584  O         22.6340  139.3680  250.1750 O.3   5862  MOL5862    -0.4105
  30585  H         23.1000  138.5260  249.9880 H     5862  MOL5862     0.2052
  30586  H         22.4230  139.3970  251.1440 H     5862  MOL5862     0.2052
  30587  O         46.2580   52.9860  147.5560 O.3   5863  MOL5863    -0.4105
  30588  H         46.7340   52.1740  147.8280 H     5863  MOL5863     0.2052
  30589  H         46.9310   53.6850  147.3470 H     5863  MOL5863     0.2052
  30590  O         26.7280   82.1160  257.0320 O.3   5864  MOL5864    -0.4105
  30591  H         26.3150   81.7420  256.2270 H     5864  MOL5864     0.2052
  30592  H         27.5850   81.6410  257.1910 H     5864  MOL5864     0.2052
  30593  O         44.7510  125.8520  221.6370 O.3   5865  MOL5865    -0.4105
  30594  H         44.0500  125.4950  222.2220 H     5865  MOL5865     0.2052
  30595  H         45.3640  125.1090  221.3990 H     5865  MOL5865     0.2052
  30596  O        162.8800  159.8110   23.8250 O.3   5866  MOL5866    -0.4105
  30597  H        161.9470  159.5170   23.8820 H     5866  MOL5866     0.2052
  30598  H        163.3510  159.5090   24.6450 H     5866  MOL5866     0.2052
  30599  O         83.7590   22.3430  235.1320 O.3   5867  MOL5867    -0.4105
  30600  H         83.0460   22.7410  235.6730 H     5867  MOL5867     0.2052
  30601  H         83.3470   21.9380  234.3250 H     5867  MOL5867     0.2052
  30602  O         70.7770   92.8740   43.9770 O.3   5868  MOL5868    -0.4105
  30603  H         71.0680   92.1510   44.5710 H     5868  MOL5868     0.2052
  30604  H         71.5530   93.4670   43.8060 H     5868  MOL5868     0.2052
  30605  O        101.8340   43.7370  219.1430 O.3   5869  MOL5869    -0.4105
  30606  H        101.6220   43.8310  220.0950 H     5869  MOL5869     0.2052
  30607  H        101.8120   42.7720  218.9130 H     5869  MOL5869     0.2052
  30608  O        131.7540  184.3890  256.0890 O.3   5870  MOL5870    -0.4105
  30609  H        131.7020  185.3410  256.3190 H     5870  MOL5870     0.2052
  30610  H        130.9170  183.9510  256.3910 H     5870  MOL5870     0.2052
  30611  O        156.8530  122.4210  236.9350 O.3   5871  MOL5871    -0.4105
  30612  H        156.6230  122.9900  236.1700 H     5871  MOL5871     0.2052
  30613  H        157.4940  121.7300  236.6260 H     5871  MOL5871     0.2052
  30614  O         46.7670  165.2400  139.6910 O.3   5872  MOL5872    -0.4105
  30615  H         46.4060  164.3780  139.9870 H     5872  MOL5872     0.2052
  30616  H         46.3530  165.4670  138.8190 H     5872  MOL5872     0.2052
  30617  O         15.2910   33.6130  185.8660 O.3   5873  MOL5873    -0.4105
  30618  H         14.8360   34.1330  186.5610 H     5873  MOL5873     0.2052
  30619  H         16.2680   33.7680  185.9520 H     5873  MOL5873     0.2052
  30620  O         67.4100  193.1280   27.9860 O.3   5874  MOL5874    -0.4105
  30621  H         67.2320  193.2590   27.0310 H     5874  MOL5874     0.2052
  30622  H         66.8260  193.7450   28.4980 H     5874  MOL5874     0.2052
  30623  O          9.8880  109.8520   66.0090 O.3   5875  MOL5875    -0.4105
  30624  H         10.3560  110.7020   66.1510 H     5875  MOL5875     0.2052
  30625  H         10.5610  109.1640   65.7700 H     5875  MOL5875     0.2052
  30626  O          5.0140   81.3950   43.8920 O.3   5876  MOL5876    -0.4105
  30627  H          5.5350   80.6350   43.5580 H     5876  MOL5876     0.2052
  30628  H          5.4150   81.6930   44.7500 H     5876  MOL5876     0.2052
  30629  O         33.3630  175.7410  116.1340 O.3   5877  MOL5877    -0.4105
  30630  H         32.5600  176.2490  115.8930 H     5877  MOL5877     0.2052
  30631  H         34.1380  176.3600  116.1190 H     5877  MOL5877     0.2052
  30632  O        185.6570  133.3650  228.4430 O.3   5878  MOL5878    -0.4105
  30633  H        185.6430  134.3360  228.3110 H     5878  MOL5878     0.2052
  30634  H        186.5960  133.0860  228.5970 H     5878  MOL5878     0.2052
  30635  O        162.9030  159.1410  278.4180 O.3   5879  MOL5879    -0.4105
  30636  H        162.0890  158.9370  278.9240 H     5879  MOL5879     0.2052
  30637  H        162.7240  158.9630  277.4580 H     5879  MOL5879     0.2052
  30638  O        154.2430   95.9360   50.9040 O.3   5880  MOL5880    -0.4105
  30639  H        154.7840   95.8090   50.0970 H     5880  MOL5880     0.2052
  30640  H        154.7590   96.4990   51.5380 H     5880  MOL5880     0.2052
  30641  O        167.4070  103.3540  202.6350 O.3   5881  MOL5881    -0.4105
  30642  H        166.5960  102.9340  202.2800 H     5881  MOL5881     0.2052
  30643  H        168.1220  103.2730  201.9520 H     5881  MOL5881     0.2052
  30644  O        155.2530  145.5950  197.8930 O.3   5882  MOL5882    -0.4105
  30645  H        155.3760  146.4710  198.3150 H     5882  MOL5882     0.2052
  30646  H        154.3060  145.5170  197.6100 H     5882  MOL5882     0.2052
  30647  O        168.3590  169.1200  295.7930 O.3   5883  MOL5883    -0.4105
  30648  H        169.2420  169.0600  295.3720 H     5883  MOL5883     0.2052
  30649  H        167.9210  169.9530  295.4780 H     5883  MOL5883     0.2052
  30650  O        148.4380   12.5610  104.8040 O.3   5884  MOL5884    -0.4105
  30651  H        148.4120   11.9360  105.5590 H     5884  MOL5884     0.2052
  30652  H        147.7600   13.2680  104.9630 H     5884  MOL5884     0.2052
  30653  O         50.1540  161.9320  125.6510 O.3   5885  MOL5885    -0.4105
  30654  H         49.4410  161.3250  125.3600 H     5885  MOL5885     0.2052
  30655  H         50.9020  161.3840  126.0060 H     5885  MOL5885     0.2052
  30656  O         65.6290  125.3820  246.5770 O.3   5886  MOL5886    -0.4105
  30657  H         66.5030  124.9380  246.5810 H     5886  MOL5886     0.2052
  30658  H         65.7790  126.3620  246.5220 H     5886  MOL5886     0.2052
  30659  O        131.7090  133.3230  176.4380 O.3   5887  MOL5887    -0.4105
  30660  H        130.9740  133.2490  175.7940 H     5887  MOL5887     0.2052
  30661  H        131.9230  132.4130  176.7710 H     5887  MOL5887     0.2052
  30662  O        198.6310  165.4930  150.0520 O.3   5888  MOL5888    -0.4105
  30663  H        198.1010  164.6690  150.0500 H     5888  MOL5888     0.2052
  30664  H        198.6620  165.8400  150.9820 H     5888  MOL5888     0.2052
  30665  O         49.9860  145.1660   29.3900 O.3   5889  MOL5889    -0.4105
  30666  H         49.3040  145.6000   28.8370 H     5889  MOL5889     0.2052
  30667  H         50.7980  145.7370   29.3860 H     5889  MOL5889     0.2052
  30668  O         55.6110   80.1250  256.5660 O.3   5890  MOL5890    -0.4105
  30669  H         54.7220   79.7690  256.7720 H     5890  MOL5890     0.2052
  30670  H         55.6200   81.0900  256.7980 H     5890  MOL5890     0.2052
  30671  O         11.0490  134.4560  133.1630 O.3   5891  MOL5891    -0.4105
  30672  H         10.2500  134.1570  133.6460 H     5891  MOL5891     0.2052
  30673  H         11.0520  134.0260  132.2700 H     5891  MOL5891     0.2052
  30674  O        164.9200   86.5000   83.4740 O.3   5892  MOL5892    -0.4105
  30675  H        165.3920   86.2790   82.6440 H     5892  MOL5892     0.2052
  30676  H        164.2440   87.1970   83.2710 H     5892  MOL5892     0.2052
  30677  O         73.5740  167.7200  185.7480 O.3   5893  MOL5893    -0.4105
  30678  H         73.9000  166.8700  185.3840 H     5893  MOL5893     0.2052
  30679  H         72.5890  167.6550  185.8530 H     5893  MOL5893     0.2052
  30680  O         20.3910  140.4980  193.2460 O.3   5894  MOL5894    -0.4105
  30681  H         20.9830  141.1170  192.7710 H     5894  MOL5894     0.2052
  30682  H         20.8450  139.6170  193.3050 H     5894  MOL5894     0.2052
  30683  O        136.3660  121.7150  186.8800 O.3   5895  MOL5895    -0.4105
  30684  H        136.8870  122.4960  187.1600 H     5895  MOL5895     0.2052
  30685  H        135.4850  121.7500  187.3350 H     5895  MOL5895     0.2052
  30686  O        128.4460   76.9560   20.3670 O.3   5896  MOL5896    -0.4105
  30687  H        129.1290   77.1260   21.0500 H     5896  MOL5896     0.2052
  30688  H        128.2620   75.9810   20.3480 H     5896  MOL5896     0.2052
  30689  O          8.8960   12.2500  220.4610 O.3   5897  MOL5897    -0.4105
  30690  H          8.1320   11.8030  220.0400 H     5897  MOL5897     0.2052
  30691  H          9.6940   11.6720  220.3480 H     5897  MOL5897     0.2052
  30692  O        161.9770  161.4980  223.7980 O.3   5898  MOL5898    -0.4105
  30693  H        161.2180  161.9460  223.3690 H     5898  MOL5898     0.2052
  30694  H        162.6940  162.1690  223.9400 H     5898  MOL5898     0.2052
  30695  O         55.6530   61.2010  297.5180 O.3   5899  MOL5899    -0.4105
  30696  H         56.5810   61.0890  297.8130 H     5899  MOL5899     0.2052
  30697  H         55.6510   61.3130  296.5320 H     5899  MOL5899     0.2052
  30698  O         46.5040   55.7360  176.8310 O.3   5900  MOL5900    -0.4105
  30699  H         46.1660   55.9470  175.9350 H     5900  MOL5900     0.2052
  30700  H         47.4920   55.6650  176.7810 H     5900  MOL5900     0.2052
  30701  O        128.7100  146.8670   53.4880 O.3   5901  MOL5901    -0.4105
  30702  H        128.2210  147.4440   54.1110 H     5901  MOL5901     0.2052
  30703  H        128.0500  146.3250   52.9830 H     5901  MOL5901     0.2052
  30704  O          4.9650  113.9460   70.4980 O.3   5902  MOL5902    -0.4105
  30705  H          5.3910  114.8220   70.6110 H     5902  MOL5902     0.2052
  30706  H          3.9830  114.0820   70.4540 H     5902  MOL5902     0.2052
  30707  O         49.2550  169.2550   67.7770 O.3   5903  MOL5903    -0.4105
  30708  H         49.2290  168.4580   67.2070 H     5903  MOL5903     0.2052
  30709  H         48.4910  169.2100   68.4080 H     5903  MOL5903     0.2052
  30710  O        101.9170  138.2970  272.6020 O.3   5904  MOL5904    -0.4105
  30711  H        101.7270  137.3440  272.7290 H     5904  MOL5904     0.2052
  30712  H        102.8940  138.4020  272.4600 H     5904  MOL5904     0.2052
  30713  O        104.8640  154.8650  177.4650 O.3   5905  MOL5905    -0.4105
  30714  H        105.3780  154.4510  176.7400 H     5905  MOL5905     0.2052
  30715  H        105.3640  154.7370  178.3120 H     5905  MOL5905     0.2052
  30716  O        101.3370   41.0990  227.2910 O.3   5906  MOL5906    -0.4105
  30717  H        100.3790   40.8930  227.2850 H     5906  MOL5906     0.2052
  30718  H        101.8390   40.2440  227.3040 H     5906  MOL5906     0.2052
  30719  O        166.6270  121.2930  135.8060 O.3   5907  MOL5907    -0.4105
  30720  H        166.2620  120.4810  135.3950 H     5907  MOL5907     0.2052
  30721  H        167.5340  121.0860  136.1500 H     5907  MOL5907     0.2052
  30722  O         45.8290   33.1840  128.1010 O.3   5908  MOL5908    -0.4105
  30723  H         46.1250   33.5900  128.9420 H     5908  MOL5908     0.2052
  30724  H         46.5550   32.5970  127.7660 H     5908  MOL5908     0.2052
  30725  O         36.7660   68.4090   41.5980 O.3   5909  MOL5909    -0.4105
  30726  H         35.8430   68.6000   41.3290 H     5909  MOL5909     0.2052
  30727  H         37.1520   67.7660   40.9480 H     5909  MOL5909     0.2052
  30728  O         86.7920  134.9700   54.9880 O.3   5910  MOL5910    -0.4105
  30729  H         86.1490  135.6830   55.1880 H     5910  MOL5910     0.2052
  30730  H         86.4700  134.1340   55.4140 H     5910  MOL5910     0.2052
  30731  O        180.9360   21.3270  149.5350 O.3   5911  MOL5911    -0.4105
  30732  H        181.5260   21.2810  150.3160 H     5911  MOL5911     0.2052
  30733  H        180.4960   22.2160  149.5290 H     5911  MOL5911     0.2052
  30734  O        108.1880   81.7210  290.8620 O.3   5912  MOL5912    -0.4105
  30735  H        107.6540   82.5110  291.0910 H     5912  MOL5912     0.2052
  30736  H        109.1380   81.9170  291.0710 H     5912  MOL5912     0.2052
  30737  O        145.1450   56.2680   64.4420 O.3   5913  MOL5913    -0.4105
  30738  H        144.6140   55.4600   64.2860 H     5913  MOL5913     0.2052
  30739  H        146.0990   56.0030   64.5120 H     5913  MOL5913     0.2052
  30740  O        118.7890   69.5990  203.5570 O.3   5914  MOL5914    -0.4105
  30741  H        117.8880   69.6340  203.1720 H     5914  MOL5914     0.2052
  30742  H        119.3890   70.1530  202.9940 H     5914  MOL5914     0.2052
  30743  O         10.4570   48.7700  149.8280 O.3   5915  MOL5915    -0.4105
  30744  H         11.1510   48.4760  149.2020 H     5915  MOL5915     0.2052
  30745  H          9.8380   48.0100  149.9840 H     5915  MOL5915     0.2052
  30746  O         53.5790  101.1750  194.1830 O.3   5916  MOL5916    -0.4105
  30747  H         54.3760  101.7450  194.2180 H     5916  MOL5916     0.2052
  30748  H         52.7790  101.7620  194.1420 H     5916  MOL5916     0.2052
  30749  O        184.5750  130.1410  157.7570 O.3   5917  MOL5917    -0.4105
  30750  H        185.4470  130.5780  157.8520 H     5917  MOL5917     0.2052
  30751  H        184.7180  129.1590  157.7560 H     5917  MOL5917     0.2052
  30752  O         52.3960  152.5870  156.6180 O.3   5918  MOL5918    -0.4105
  30753  H         52.5460  152.6200  157.5860 H     5918  MOL5918     0.2052
  30754  H         52.4260  151.6370  156.3320 H     5918  MOL5918     0.2052
  30755  O          2.5620   61.6870   59.8240 O.3   5919  MOL5919    -0.4105
  30756  H          3.2870   61.1050   60.1350 H     5919  MOL5919     0.2052
  30757  H          1.7090   61.1860   59.9000 H     5919  MOL5919     0.2052
  30758  O        166.2750  162.3440  242.6700 O.3   5920  MOL5920    -0.4105
  30759  H        166.0250  163.0870  243.2580 H     5920  MOL5920     0.2052
  30760  H        165.6660  161.5830  242.8550 H     5920  MOL5920     0.2052
  30761  O         52.7730  167.6680   34.7270 O.3   5921  MOL5921    -0.4105
  30762  H         53.4410  168.3840   34.7760 H     5921  MOL5921     0.2052
  30763  H         53.2510  166.8040   34.6280 H     5921  MOL5921     0.2052
  30764  O         51.0130   41.3830  284.4760 O.3   5922  MOL5922    -0.4105
  30765  H         50.7730   40.5790  283.9700 H     5922  MOL5922     0.2052
  30766  H         50.2500   42.0160  284.4320 H     5922  MOL5922     0.2052
  30767  O        159.6460  127.3740  240.3180 O.3   5923  MOL5923    -0.4105
  30768  H        158.8960  128.0000  240.2410 H     5923  MOL5923     0.2052
  30769  H        159.3660  126.6250  240.9050 H     5923  MOL5923     0.2052
  30770  O         36.9020  179.9260   96.7790 O.3   5924  MOL5924    -0.4105
  30771  H         36.3640  180.4820   96.1760 H     5924  MOL5924     0.2052
  30772  H         37.2110  180.4940   97.5310 H     5924  MOL5924     0.2052
  30773  O        145.2480   62.3290  279.0310 O.3   5925  MOL5925    -0.4105
  30774  H        144.9780   63.2710  278.9940 H     5925  MOL5925     0.2052
  30775  H        146.2070   62.2710  278.7810 H     5925  MOL5925     0.2052
  30776  O        113.4750   98.0860  220.8650 O.3   5926  MOL5926    -0.4105
  30777  H        113.0500   97.3480  221.3500 H     5926  MOL5926     0.2052
  30778  H        113.2370   98.0050  219.9050 H     5926  MOL5926     0.2052
  30779  O        186.7690   99.3640  199.8100 O.3   5927  MOL5927    -0.4105
  30780  H        186.5550  100.3180  199.8770 H     5927  MOL5927     0.2052
  30781  H        187.7530   99.2610  199.8830 H     5927  MOL5927     0.2052
  30782  O         38.9650   23.3770   70.8790 O.3   5928  MOL5928    -0.4105
  30783  H         39.6470   22.7090   70.6570 H     5928  MOL5928     0.2052
  30784  H         38.1730   23.2150   70.3030 H     5928  MOL5928     0.2052
  30785  O        178.6620   29.9480   62.1260 O.3   5929  MOL5929    -0.4105
  30786  H        178.2230   30.6070   62.7040 H     5929  MOL5929     0.2052
  30787  H        178.9250   30.4010   61.2830 H     5929  MOL5929     0.2052
  30788  O          1.1810  132.3410  256.2420 O.3   5930  MOL5930    -0.4105
  30789  H          0.3780  132.8840  256.1020 H     5930  MOL5930     0.2052
  30790  H          0.9200  131.3840  256.2030 H     5930  MOL5930     0.2052
  30791  O         44.2700  188.3330  195.8150 O.3   5931  MOL5931    -0.4105
  30792  H         44.8700  188.8660  196.3780 H     5931  MOL5931     0.2052
  30793  H         44.5480  187.3820  195.8790 H     5931  MOL5931     0.2052
  30794  O         42.4400  109.0010  231.2610 O.3   5932  MOL5932    -0.4105
  30795  H         42.7830  109.9170  231.3260 H     5932  MOL5932     0.2052
  30796  H         43.1940  108.3760  231.4210 H     5932  MOL5932     0.2052
  30797  O         81.1830   87.3520  222.7700 O.3   5933  MOL5933    -0.4105
  30798  H         80.8550   86.7130  222.1030 H     5933  MOL5933     0.2052
  30799  H         80.4310   87.5850  223.3730 H     5933  MOL5933     0.2052
  30800  O        192.1690  104.4140  232.5220 O.3   5934  MOL5934    -0.4105
  30801  H        191.6770  104.0170  233.2720 H     5934  MOL5934     0.2052
  30802  H        191.9940  105.3900  232.5190 H     5934  MOL5934     0.2052
  30803  O        190.7240   78.0090   75.9190 O.3   5935  MOL5935    -0.4105
  30804  H        190.5360   77.3440   75.2250 H     5935  MOL5935     0.2052
  30805  H        190.2420   77.7410   76.7440 H     5935  MOL5935     0.2052
  30806  O         98.9170  176.1240    2.2290 O.3   5936  MOL5936    -0.4105
  30807  H         98.3510  176.1510    3.0290 H     5936  MOL5936     0.2052
  30808  H         99.0830  175.1740    1.9980 H     5936  MOL5936     0.2052
  30809  O        137.4320  105.3120  189.3290 O.3   5937  MOL5937    -0.4105
  30810  H        137.6280  106.2700  189.2520 H     5937  MOL5937     0.2052
  30811  H        137.9400  104.9530  190.1020 H     5937  MOL5937     0.2052
  30812  O         17.9830   68.4640  194.6890 O.3   5938  MOL5938    -0.4105
  30813  H         17.0200   68.5800  194.8310 H     5938  MOL5938     0.2052
  30814  H         18.2750   69.1150  193.9990 H     5938  MOL5938     0.2052
  30815  O        192.4560  191.1510    5.9080 O.3   5939  MOL5939    -0.4105
  30816  H        192.2650  191.9560    6.4340 H     5939  MOL5939     0.2052
  30817  H        191.6070  190.6540    5.7830 H     5939  MOL5939     0.2052
  30818  O        199.6290  126.1950   44.1060 O.3   5940  MOL5940    -0.4105
  30819  H        199.9940  127.1040   44.1270 H     5940  MOL5940     0.2052
  30820  H        198.6390  126.2580   44.1130 H     5940  MOL5940     0.2052
  30821  O        134.2990   46.8790  245.1850 O.3   5941  MOL5941    -0.4105
  30822  H        133.4100   46.4680  245.1490 H     5941  MOL5941     0.2052
  30823  H        134.9770   46.1550  245.1850 H     5941  MOL5941     0.2052
  30824  O        195.7740   51.2150  181.6590 O.3   5942  MOL5942    -0.4105
  30825  H        195.2120   50.9650  180.8960 H     5942  MOL5942     0.2052
  30826  H        195.5480   52.1460  181.9200 H     5942  MOL5942     0.2052
  30827  O         74.3720  196.2020   17.9700 O.3   5943  MOL5943    -0.4105
  30828  H         73.9890  195.3140   17.8130 H     5943  MOL5943     0.2052
  30829  H         75.1450  196.3190   17.3590 H     5943  MOL5943     0.2052
  30830  O        134.8950  154.9850  161.4970 O.3   5944  MOL5944    -0.4105
  30831  H        133.9870  154.9540  161.1280 H     5944  MOL5944     0.2052
  30832  H        135.5240  154.6610  160.8010 H     5944  MOL5944     0.2052
  30833  O         36.5970  115.2770  218.6050 O.3   5945  MOL5945    -0.4105
  30834  H         37.5700  115.3870  218.6520 H     5945  MOL5945     0.2052
  30835  H         36.3910  114.6440  217.8690 H     5945  MOL5945     0.2052
  30836  O         42.6020  142.1100  107.7450 O.3   5946  MOL5946    -0.4105
  30837  H         42.7280  142.3020  106.7920 H     5946  MOL5946     0.2052
  30838  H         43.4470  141.7320  108.1010 H     5946  MOL5946     0.2052
  30839  O         98.7240   10.7060  219.3400 O.3   5947  MOL5947    -0.4105
  30840  H         98.6710    9.7800  219.6580 H     5947  MOL5947     0.2052
  30841  H         99.6480   10.8700  219.0160 H     5947  MOL5947     0.2052
  30842  O        196.2670  182.2320  262.7980 O.3   5948  MOL5948    -0.4105
  30843  H        195.7120  183.0380  262.8410 H     5948  MOL5948     0.2052
  30844  H        195.6690  181.4410  262.8260 H     5948  MOL5948     0.2052
  30845  O        194.6030   65.6130  104.8320 O.3   5949  MOL5949    -0.4105
  30846  H        195.0770   66.4710  104.8130 H     5949  MOL5949     0.2052
  30847  H        195.2780   64.8850  104.8370 H     5949  MOL5949     0.2052
  30848  O        167.0670   94.4550  176.2170 O.3   5950  MOL5950    -0.4105
  30849  H        167.6730   95.2250  176.1980 H     5950  MOL5950     0.2052
  30850  H        166.1600   94.7800  176.4550 H     5950  MOL5950     0.2052
  30851  O         61.3470  130.5140  173.2970 O.3   5951  MOL5951    -0.4105
  30852  H         62.2500  130.5430  172.9180 H     5951  MOL5951     0.2052
  30853  H         60.8750  129.7290  172.9160 H     5951  MOL5951     0.2052
  30854  O         67.0330   13.2400  229.8170 O.3   5952  MOL5952    -0.4105
  30855  H         67.6350   12.7700  230.4320 H     5952  MOL5952     0.2052
  30856  H         66.3400   12.5990  229.5100 H     5952  MOL5952     0.2052
  30857  O         98.6840  116.2470  216.4530 O.3   5953  MOL5953    -0.4105
  30858  H         99.5590  116.6830  216.5210 H     5953  MOL5953     0.2052
  30859  H         98.4660  115.8480  217.3350 H     5953  MOL5953     0.2052
  30860  O         47.7120   29.7210  119.4600 O.3   5954  MOL5954    -0.4105
  30861  H         47.4810   28.7750  119.5680 H     5954  MOL5954     0.2052
  30862  H         46.8780   30.2240  119.2660 H     5954  MOL5954     0.2052
  30863  O         11.1710  149.7540  213.4340 O.3   5955  MOL5955    -0.4105
  30864  H         12.1510  149.7670  213.4330 H     5955  MOL5955     0.2052
  30865  H         10.8480  150.6920  213.4360 H     5955  MOL5955     0.2052
  30866  O         37.4500  112.5750  232.4420 O.3   5956  MOL5956    -0.4105
  30867  H         36.6070  113.0430  232.6150 H     5956  MOL5956     0.2052
  30868  H         37.2450  111.6170  232.2810 H     5956  MOL5956     0.2052
  30869  O        110.6220   32.5430  181.8780 O.3   5957  MOL5957    -0.4105
  30870  H        111.0270   31.6540  181.8030 H     5957  MOL5957     0.2052
  30871  H        110.0420   32.5530  182.6830 H     5957  MOL5957     0.2052
  30872  O         47.0340  193.2740  153.5010 O.3   5958  MOL5958    -0.4105
  30873  H         47.9840  193.0540  153.4050 H     5958  MOL5958     0.2052
  30874  H         46.5030  192.5420  153.0930 H     5958  MOL5958     0.2052
  30875  O         32.4690  117.9260   76.3820 O.3   5959  MOL5959    -0.4105
  30876  H         31.6120  117.4570   76.3120 H     5959  MOL5959     0.2052
  30877  H         32.3860  118.6230   77.0840 H     5959  MOL5959     0.2052
  30878  O         16.2510   19.3810   77.0850 O.3   5960  MOL5960    -0.4105
  30879  H         15.4300   19.6960   76.6530 H     5960  MOL5960     0.2052
  30880  H         16.8840   20.1440   77.1420 H     5960  MOL5960     0.2052
  30881  O        181.7760  133.3800   18.2610 O.3   5961  MOL5961    -0.4105
  30882  H        181.5640  133.9680   17.5060 H     5961  MOL5961     0.2052
  30883  H        181.3760  133.7710   19.0810 H     5961  MOL5961     0.2052
  30884  O        197.4930   73.7520  242.8560 O.3   5962  MOL5962    -0.4105
  30885  H        196.6250   73.3510  242.6410 H     5962  MOL5962     0.2052
  30886  H        197.9830   73.1300  243.4540 H     5962  MOL5962     0.2052
  30887  O         60.2330   84.0660  284.7480 O.3   5963  MOL5963    -0.4105
  30888  H         59.2830   83.9160  284.9380 H     5963  MOL5963     0.2052
  30889  H         60.4630   84.9910  285.0230 H     5963  MOL5963     0.2052
  30890  O        178.1220   68.8530  109.4140 O.3   5964  MOL5964    -0.4105
  30891  H        177.2570   68.4170  109.5640 H     5964  MOL5964     0.2052
  30892  H        178.7780   68.1570  109.1500 H     5964  MOL5964     0.2052
  30893  O         75.5600  176.4590  224.5710 O.3   5965  MOL5965    -0.4105
  30894  H         75.3130  177.3990  224.7000 H     5965  MOL5965     0.2052
  30895  H         74.7270  175.9220  224.5280 H     5965  MOL5965     0.2052
  30896  O        129.5400    2.2560   56.7840 O.3   5966  MOL5966    -0.4105
  30897  H        130.1370    1.4890   56.9020 H     5966  MOL5966     0.2052
  30898  H        129.2980    2.6030   57.6810 H     5966  MOL5966     0.2052
  30899  O         29.2870  105.1310   82.6040 O.3   5967  MOL5967    -0.4105
  30900  H         30.2560  105.2770   82.5900 H     5967  MOL5967     0.2052
  30901  H         28.9380  105.4490   83.4770 H     5967  MOL5967     0.2052
  30902  O         10.0570   61.5250  212.5390 O.3   5968  MOL5968    -0.4105
  30903  H          9.5820   61.5370  213.3970 H     5968  MOL5968     0.2052
  30904  H         10.8270   60.9040  212.6200 H     5968  MOL5968     0.2052
  30905  O         43.6690   38.8560  231.2110 O.3   5969  MOL5969    -0.4105
  30906  H         42.9510   39.5220  231.2470 H     5969  MOL5969     0.2052
  30907  H         43.2590   37.9650  231.0600 H     5969  MOL5969     0.2052
  30908  O         66.4250  186.1640   72.9800 O.3   5970  MOL5970    -0.4105
  30909  H         66.3400  186.9870   72.4540 H     5970  MOL5970     0.2052
  30910  H         66.8010  186.4000   73.8670 H     5970  MOL5970     0.2052
  30911  O        170.7460  136.9890   40.8170 O.3   5971  MOL5971    -0.4105
  30912  H        169.9910  136.3650   40.7910 H     5971  MOL5971     0.2052
  30913  H        171.3060  136.7650   41.6050 H     5971  MOL5971     0.2052
  30914  O          6.6260  100.3460  276.2480 O.3   5972  MOL5972    -0.4105
  30915  H          6.4370  101.0150  275.5570 H     5972  MOL5972     0.2052
  30916  H          6.5930  100.7960  277.1320 H     5972  MOL5972     0.2052
  30917  O        145.6910    6.1440  275.4410 O.3   5973  MOL5973    -0.4105
  30918  H        145.4110    5.2050  275.4630 H     5973  MOL5973     0.2052
  30919  H        144.8760    6.7100  275.4410 H     5973  MOL5973     0.2052
  30920  O         43.6680    4.1540  123.5460 O.3   5974  MOL5974    -0.4105
  30921  H         44.2650    4.9280  123.4770 H     5974  MOL5974     0.2052
  30922  H         42.7330    4.4840  123.5720 H     5974  MOL5974     0.2052
  30923  O         84.9560   38.4420  209.7120 O.3   5975  MOL5975    -0.4105
  30924  H         84.4860   39.1150  210.2480 H     5975  MOL5975     0.2052
  30925  H         84.9560   37.5880  210.2180 H     5975  MOL5975     0.2052
  30926  O        167.7450  139.5150  241.6020 O.3   5976  MOL5976    -0.4105
  30927  H        167.9050  138.6210  241.2350 H     5976  MOL5976     0.2052
  30928  H        168.4400  140.1270  241.2450 H     5976  MOL5976     0.2052
  30929  O        164.3030   87.6890  206.7930 O.3   5977  MOL5977    -0.4105
  30930  H        163.7330   88.1110  207.4700 H     5977  MOL5977     0.2052
  30931  H        163.7170   87.2290  206.1370 H     5977  MOL5977     0.2052
  30932  O         48.5770   73.3970  183.4640 O.3   5978  MOL5978    -0.4105
  30933  H         49.2770   72.9840  182.9160 H     5978  MOL5978     0.2052
  30934  H         48.6840   74.3830  183.4140 H     5978  MOL5978     0.2052
  30935  O          3.8800   59.6170   80.5010 O.3   5979  MOL5979    -0.4105
  30936  H          4.2140   60.2470   81.1740 H     5979  MOL5979     0.2052
  30937  H          4.5050   59.6250   79.7310 H     5979  MOL5979     0.2052
  30938  O          2.8170  126.3640  241.3170 O.3   5980  MOL5980    -0.4105
  30939  H          2.6900  126.1350  242.2610 H     5980  MOL5980     0.2052
  30940  H          1.9870  126.1310  240.8260 H     5980  MOL5980     0.2052
  30941  O         89.6440  165.8950   27.4530 O.3   5981  MOL5981    -0.4105
  30942  H         90.2030  165.5600   28.1850 H     5981  MOL5981     0.2052
  30943  H         89.6590  165.2260   26.7200 H     5981  MOL5981     0.2052
  30944  O         42.4380  192.3010   67.8940 O.3   5982  MOL5982    -0.4105
  30945  H         41.7150  192.6760   68.4380 H     5982  MOL5982     0.2052
  30946  H         42.6180  191.3780   68.2100 H     5982  MOL5982     0.2052
  30947  O        189.0550  196.8230  168.8920 O.3   5983  MOL5983    -0.4105
  30948  H        188.2780  197.4070  168.7700 H     5983  MOL5983     0.2052
  30949  H        189.8100  197.3760  169.2220 H     5983  MOL5983     0.2052
  30950  O        146.0710  152.3220  273.2930 O.3   5984  MOL5984    -0.4105
  30951  H        146.3070  151.8730  274.1310 H     5984  MOL5984     0.2052
  30952  H        146.4150  151.7750  272.5400 H     5984  MOL5984     0.2052
  30953  O         52.0590   13.5010  124.4480 O.3   5985  MOL5985    -0.4105
  30954  H         51.4160   12.7800  124.6110 H     5985  MOL5985     0.2052
  30955  H         51.5720   14.3650  124.4780 H     5985  MOL5985     0.2052
  30956  O         16.6980   25.6160   11.4770 O.3   5986  MOL5986    -0.4105
  30957  H         17.4310   25.5860   12.1260 H     5986  MOL5986     0.2052
  30958  H         16.9510   25.0570   10.6970 H     5986  MOL5986     0.2052
  30959  O        188.7460  134.1910  214.1290 O.3   5987  MOL5987    -0.4105
  30960  H        188.0010  134.6440  213.6810 H     5987  MOL5987     0.2052
  30961  H        189.5670  134.7290  213.9870 H     5987  MOL5987     0.2052
  30962  O         67.0330  162.4920   98.0470 O.3   5988  MOL5988    -0.4105
  30963  H         67.5990  161.9010   97.5080 H     5988  MOL5988     0.2052
  30964  H         66.1540  162.0480   98.1750 H     5988  MOL5988     0.2052
  30965  O         76.9030  172.3720  246.3540 O.3   5989  MOL5989    -0.4105
  30966  H         77.7930  172.6830  246.0880 H     5989  MOL5989     0.2052
  30967  H         76.8890  171.3810  246.2920 H     5989  MOL5989     0.2052
  30968  O          5.9160   41.7000   61.3030 O.3   5990  MOL5990    -0.4105
  30969  H          5.2640   42.1030   61.9130 H     5990  MOL5990     0.2052
  30970  H          5.4580   40.9860   60.7870 H     5990  MOL5990     0.2052
  30971  O         29.0210    9.2780  100.1040 O.3   5991  MOL5991    -0.4105
  30972  H         29.8520    8.8840   99.7660 H     5991  MOL5991     0.2052
  30973  H         28.7870   10.0520   99.5280 H     5991  MOL5991     0.2052
  30974  O        127.0200  173.2510  225.8460 O.3   5992  MOL5992    -0.4105
  30975  H        127.5200  172.5690  226.3400 H     5992  MOL5992     0.2052
  30976  H        126.0510  173.0980  226.0000 H     5992  MOL5992     0.2052
  30977  O        109.2850  109.5440  181.0750 O.3   5993  MOL5993    -0.4105
  30978  H        108.4140  109.9930  181.0770 H     5993  MOL5993     0.2052
  30979  H        109.9750  110.2040  181.3460 H     5993  MOL5993     0.2052
  30980  O         44.4270   41.1890   88.1230 O.3   5994  MOL5994    -0.4105
  30981  H         45.3790   41.3880   88.0000 H     5994  MOL5994     0.2052
  30982  H         44.0560   41.8370   88.7760 H     5994  MOL5994     0.2052
  30983  O         40.1140  173.2040  293.0320 O.3   5995  MOL5995    -0.4105
  30984  H         40.4570  172.4690  293.5820 H     5995  MOL5995     0.2052
  30985  H         40.4540  173.0850  292.1070 H     5995  MOL5995     0.2052
  30986  O        135.4780   18.6150  216.4250 O.3   5996  MOL5996    -0.4105
  30987  H        136.4540   18.7030  216.4220 H     5996  MOL5996     0.2052
  30988  H        135.2530   17.6490  216.4400 H     5996  MOL5996     0.2052
  30989  O        106.2630  170.0030  160.0600 O.3   5997  MOL5997    -0.4105
  30990  H        106.8140  170.8120  160.0010 H     5997  MOL5997     0.2052
  30991  H        106.8650  169.2280  160.2060 H     5997  MOL5997     0.2052
  30992  O        140.7220    3.1320   39.7600 O.3   5998  MOL5998    -0.4105
  30993  H        140.6310    3.1390   38.7840 H     5998  MOL5998     0.2052
  30994  H        139.8300    3.3090   40.1560 H     5998  MOL5998     0.2052
  30995  O        172.6070  185.8540   44.6210 O.3   5999  MOL5999    -0.4105
  30996  H        172.8200  186.1430   43.7100 H     5999  MOL5999     0.2052
  30997  H        173.3310  185.2510   44.9340 H     5999  MOL5999     0.2052
  30998  O        114.2950  170.0450  269.9480 O.3   6000  MOL6000    -0.4105
  30999  H        114.6850  170.0600  269.0490 H     6000  MOL6000     0.2052
  31000  H        113.8170  169.1830  270.0640 H     6000  MOL6000     0.2052
  31001  O        116.4410  145.8040   56.8800 O.3   6001  MOL6001    -0.4105
  31002  H        116.5780  146.3900   57.6540 H     6001  MOL6001     0.2052
  31003  H        117.0400  145.0180   56.9770 H     6001  MOL6001     0.2052
  31004  O         52.6910   27.9250  126.7570 O.3   6002  MOL6002    -0.4105
  31005  H         51.8680   28.4470  126.6550 H     6002  MOL6002     0.2052
  31006  H         52.6360   27.1370  126.1570 H     6002  MOL6002     0.2052
  31007  O         31.3540    6.2690  131.0340 O.3   6003  MOL6003    -0.4105
  31008  H         31.6770    7.1920  131.1040 H     6003  MOL6003     0.2052
  31009  H         32.1390    5.6630  131.0540 H     6003  MOL6003     0.2052
  31010  O         24.1670  169.3850   10.8700 O.3   6004  MOL6004    -0.4105
  31011  H         23.8480  169.2530    9.9520 H     6004  MOL6004     0.2052
  31012  H         24.8910  168.7290   11.0440 H     6004  MOL6004     0.2052
  31013  O          9.8940  161.6390  218.2330 O.3   6005  MOL6005    -0.4105
  31014  H         10.0820  161.4020  219.1650 H     6005  MOL6005     0.2052
  31015  H         10.0970  160.8510  217.6660 H     6005  MOL6005     0.2052
  31016  O        197.8710   36.0560   84.5940 O.3   6006  MOL6006    -0.4105
  31017  H        197.1630   36.6470   84.2640 H     6006  MOL6006     0.2052
  31018  H        197.9870   35.3160   83.9440 H     6006  MOL6006     0.2052
  31019  O         60.0590  191.7150  109.9880 O.3   6007  MOL6007    -0.4105
  31020  H         60.6470  191.1980  109.3990 H     6007  MOL6007     0.2052
  31021  H         60.2920  191.4970  110.9280 H     6007  MOL6007     0.2052
  31022  O        151.7940   63.8580   35.5940 O.3   6008  MOL6008    -0.4105
  31023  H        151.8500   64.5390   36.2970 H     6008  MOL6008     0.2052
  31024  H        151.7310   62.9680   36.0280 H     6008  MOL6008     0.2052
  31025  O        152.8070  191.9040  257.0770 O.3   6009  MOL6009    -0.4105
  31026  H        152.7300  192.6130  256.4050 H     6009  MOL6009     0.2052
  31027  H        151.9070  191.7400  257.4600 H     6009  MOL6009     0.2052
  31028  O         99.5820  128.2620  230.4210 O.3   6010  MOL6010    -0.4105
  31029  H         99.6650  128.6190  229.5110 H     6010  MOL6010     0.2052
  31030  H         99.2260  127.3380  230.3610 H     6010  MOL6010     0.2052
  31031  O        184.2980   22.9670  112.3630 O.3   6011  MOL6011    -0.4105
  31032  H        183.9950   22.0720  112.6230 H     6011  MOL6011     0.2052
  31033  H        183.5110   23.4820  112.0460 H     6011  MOL6011     0.2052
  31034  O          1.1610  163.9120  138.5610 O.3   6012  MOL6012    -0.4105
  31035  H          1.3250  164.8780  138.5890 H     6012  MOL6012     0.2052
  31036  H          0.2230  163.7650  138.2740 H     6012  MOL6012     0.2052
  31037  O         38.9870  123.0930  293.5920 O.3   6013  MOL6013    -0.4105
  31038  H         38.7040  122.1840  293.8270 H     6013  MOL6013     0.2052
  31039  H         38.4060  123.4180  292.8560 H     6013  MOL6013     0.2052
  31040  O         96.2020  186.3120   16.2780 O.3   6014  MOL6014    -0.4105
  31041  H         96.7570  185.6870   16.7890 H     6014  MOL6014     0.2052
  31042  H         95.6590  186.8410   16.9190 H     6014  MOL6014     0.2052
  31043  O        174.3070   29.1470   60.0700 O.3   6015  MOL6015    -0.4105
  31044  H        174.1980   28.5540   59.2970 H     6015  MOL6015     0.2052
  31045  H        173.9570   28.6800   60.8720 H     6015  MOL6015     0.2052
  31046  O        170.3060   63.3750   28.2440 O.3   6016  MOL6016    -0.4105
  31047  H        170.4510   64.3040   27.9640 H     6016  MOL6016     0.2052
  31048  H        170.3550   63.3380   29.2340 H     6016  MOL6016     0.2052
  31049  O        170.2820  100.9560  204.3290 O.3   6017  MOL6017    -0.4105
  31050  H        169.6110  100.3770  203.9100 H     6017  MOL6017     0.2052
  31051  H        170.9790  101.1630  203.6540 H     6017  MOL6017     0.2052
  31052  O         37.7430  185.6310   81.7450 O.3   6018  MOL6018    -0.4105
  31053  H         37.5750  186.5900   81.8540 H     6018  MOL6018     0.2052
  31054  H         38.6330  185.5180   81.3210 H     6018  MOL6018     0.2052
  31055  O          1.3700  124.7520  132.5910 O.3   6019  MOL6019    -0.4105
  31056  H          0.6460  125.2090  133.0680 H     6019  MOL6019     0.2052
  31057  H          2.2070  124.8690  133.1110 H     6019  MOL6019     0.2052
  31058  O        149.1920  172.8180  259.5370 O.3   6020  MOL6020    -0.4105
  31059  H        149.6840  172.0360  259.8630 H     6020  MOL6020     0.2052
  31060  H        148.3490  172.5030  259.1190 H     6020  MOL6020     0.2052
  31061  O        101.4380  118.6630  277.7010 O.3   6021  MOL6021    -0.4105
  31062  H        102.2610  118.1320  277.6790 H     6021  MOL6021     0.2052
  31063  H        100.9340  118.4210  278.5220 H     6021  MOL6021     0.2052
  31064  O         76.6130   63.5130  239.2440 O.3   6022  MOL6022    -0.4105
  31065  H         77.4850   63.0660  239.2160 H     6022  MOL6022     0.2052
  31066  H         75.9070   62.8160  239.2480 H     6022  MOL6022     0.2052
  31067  O         80.1100   31.0020   70.9990 O.3   6023  MOL6023    -0.4105
  31068  H         80.0460   30.9930   71.9760 H     6023  MOL6023     0.2052
  31069  H         79.8050   31.8900   70.6760 H     6023  MOL6023     0.2052
  31070  O        182.7400  141.6470   68.5290 O.3   6024  MOL6024    -0.4105
  31071  H        181.9300  142.1810   68.3870 H     6024  MOL6024     0.2052
  31072  H        183.0660  141.3370   67.6450 H     6024  MOL6024     0.2052
  31073  O        170.5600   86.3850  203.4190 O.3   6025  MOL6025    -0.4105
  31074  H        170.1280   85.7020  202.8660 H     6025  MOL6025     0.2052
  31075  H        170.5320   86.0830  204.3640 H     6025  MOL6025     0.2052
  31076  O         23.7490  167.6330  282.5820 O.3   6026  MOL6026    -0.4105
  31077  H         24.7160  167.6260  282.7410 H     6026  MOL6026     0.2052
  31078  H         23.4780  168.5600  282.3550 H     6026  MOL6026     0.2052
  31079  O        133.9220  147.9840  185.4020 O.3   6027  MOL6027    -0.4105
  31080  H        132.9450  148.0560  185.4250 H     6027  MOL6027     0.2052
  31081  H        134.3040  148.8640  185.6540 H     6027  MOL6027     0.2052
  31082  O        187.3320   66.4010  214.9180 O.3   6028  MOL6028    -0.4105
  31083  H        186.4930   66.4210  215.4250 H     6028  MOL6028     0.2052
  31084  H        187.9750   65.8240  215.4060 H     6028  MOL6028     0.2052
  31085  O        113.9620  100.9480   68.3810 O.3   6029  MOL6029    -0.4105
  31086  H        114.6790  101.6120   68.4550 H     6029  MOL6029     0.2052
  31087  H        113.9750  100.5790   67.4600 H     6029  MOL6029     0.2052
  31088  O        128.0890   79.1400  234.1780 O.3   6030  MOL6030    -0.4105
  31089  H        128.0460   78.5670  234.9720 H     6030  MOL6030     0.2052
  31090  H        127.3110   78.9300  233.6000 H     6030  MOL6030     0.2052
  31091  O        118.1810   10.1900   84.3510 O.3   6031  MOL6031    -0.4105
  31092  H        118.4620    9.9060   85.2460 H     6031  MOL6031     0.2052
  31093  H        118.8710    9.8980   83.7010 H     6031  MOL6031     0.2052
  31094  O         41.5470  111.0810  105.1110 O.3   6032  MOL6032    -0.4105
  31095  H         42.1130  111.6770  104.5770 H     6032  MOL6032     0.2052
  31096  H         41.3770  111.5160  105.9870 H     6032  MOL6032     0.2052
  31097  O        111.7590   21.9780  144.1450 O.3   6033  MOL6033    -0.4105
  31098  H        111.5850   22.9420  144.1200 H     6033  MOL6033     0.2052
  31099  H        110.9500   21.5080  143.8150 H     6033  MOL6033     0.2052
  31100  O         84.7160   78.8600   66.2670 O.3   6034  MOL6034    -0.4105
  31101  H         84.5960   79.0870   67.2130 H     6034  MOL6034     0.2052
  31102  H         85.1450   77.9660   66.2150 H     6034  MOL6034     0.2052
  31103  O         43.8350  143.8910  212.5400 O.3   6035  MOL6035    -0.4105
  31104  H         43.5360  144.6060  211.9410 H     6035  MOL6035     0.2052
  31105  H         43.1520  143.7760  213.2510 H     6035  MOL6035     0.2052
  31106  O         77.0960  107.6970  259.9210 O.3   6036  MOL6036    -0.4105
  31107  H         76.2560  107.4600  259.4760 H     6036  MOL6036     0.2052
  31108  H         77.5710  106.8580  260.1560 H     6036  MOL6036     0.2052
  31109  O        199.9970   23.8560  247.2030 O.3   6037  MOL6037    -0.4105
  31110  H        199.6980   24.6670  246.7410 H     6037  MOL6037     0.2052
  31111  H        199.2230   23.2410  247.2840 H     6037  MOL6037     0.2052
  31112  O        177.2970  192.1850  231.5960 O.3   6038  MOL6038    -0.4105
  31113  H        177.4900  191.3770  232.1170 H     6038  MOL6038     0.2052
  31114  H        178.1420  192.6940  231.4900 H     6038  MOL6038     0.2052
  31115  O        145.2350  167.4690  168.7750 O.3   6039  MOL6039    -0.4105
  31116  H        144.3860  167.1050  169.1040 H     6039  MOL6039     0.2052
  31117  H        145.0740  168.3960  168.4590 H     6039  MOL6039     0.2052
  31118  O        124.7490  161.9700  175.5050 O.3   6040  MOL6040    -0.4105
  31119  H        124.8450  162.7690  176.0650 H     6040  MOL6040     0.2052
  31120  H        123.8260  161.9560  175.1400 H     6040  MOL6040     0.2052
  31121  O        166.6990  173.7290   97.9580 O.3   6041  MOL6041    -0.4105
  31122  H        167.3330  173.8220   97.2170 H     6041  MOL6041     0.2052
  31123  H        165.8590  173.3390   97.6000 H     6041  MOL6041     0.2052
  31124  O         36.3150   79.1880  152.4180 O.3   6042  MOL6042    -0.4105
  31125  H         36.4250   79.1110  151.4480 H     6042  MOL6042     0.2052
  31126  H         35.3770   79.4530  152.6040 H     6042  MOL6042     0.2052
  31127  O         37.7150  134.0390  152.1300 O.3   6043  MOL6043    -0.4105
  31128  H         37.2320  134.4420  151.3780 H     6043  MOL6043     0.2052
  31129  H         38.2740  134.7410  152.5530 H     6043  MOL6043     0.2052
  31130  O         49.2500  175.7540  247.8470 O.3   6044  MOL6044    -0.4105
  31131  H         48.4400  175.9100  247.3180 H     6044  MOL6044     0.2052
  31132  H         49.4000  176.5470  248.4260 H     6044  MOL6044     0.2052
  31133  O        145.4570   52.8870  134.3140 O.3   6045  MOL6045    -0.4105
  31134  H        145.7100   52.1980  133.6650 H     6045  MOL6045     0.2052
  31135  H        146.1150   53.6270  134.2540 H     6045  MOL6045     0.2052
  31136  O         85.3540   25.9250    9.4010 O.3   6046  MOL6046    -0.4105
  31137  H         85.5500   26.6240   10.0590 H     6046  MOL6046     0.2052
  31138  H         86.0620   25.9450    8.7060 H     6046  MOL6046     0.2052
  31139  O         62.9400  138.8290  235.6280 O.3   6047  MOL6047    -0.4105
  31140  H         63.7560  138.3510  235.8850 H     6047  MOL6047     0.2052
  31141  H         63.0220  139.7690  235.9340 H     6047  MOL6047     0.2052
  31142  O        111.6450  146.0590  245.2330 O.3   6048  MOL6048    -0.4105
  31143  H        112.1130  145.9740  244.3760 H     6048  MOL6048     0.2052
  31144  H        111.1880  145.1990  245.4230 H     6048  MOL6048     0.2052
  31145  O         96.1800  175.2200  104.5020 O.3   6049  MOL6049    -0.4105
  31146  H         97.0310  174.7900  104.2730 H     6049  MOL6049     0.2052
  31147  H         96.0610  176.0070  103.9090 H     6049  MOL6049     0.2052
  31148  O         16.8520  184.8310  281.6670 O.3   6050  MOL6050    -0.4105
  31149  H         17.8050  185.0590  281.6830 H     6050  MOL6050     0.2052
  31150  H         16.7690  183.8430  281.6310 H     6050  MOL6050     0.2052
  31151  O         31.1060  171.1100   57.3090 O.3   6051  MOL6051    -0.4105
  31152  H         31.6590  170.3070   57.2110 H     6051  MOL6051     0.2052
  31153  H         30.1920  170.8980   56.9870 H     6051  MOL6051     0.2052
  31154  O        142.1540  166.8490  141.7000 O.3   6052  MOL6052    -0.4105
  31155  H        142.8020  166.1560  141.4520 H     6052  MOL6052     0.2052
  31156  H        142.3920  167.6830  141.2180 H     6052  MOL6052     0.2052
  31157  O        197.9110  179.9740  147.0420 O.3   6053  MOL6053    -0.4105
  31158  H        198.1260  180.9130  146.8630 H     6053  MOL6053     0.2052
  31159  H        198.7530  179.4500  147.0020 H     6053  MOL6053     0.2052
  31160  O        122.7960  129.2250  286.3440 O.3   6054  MOL6054    -0.4105
  31161  H        122.6440  129.7320  285.5190 H     6054  MOL6054     0.2052
  31162  H        122.1170  128.5030  286.3950 H     6054  MOL6054     0.2052
  31163  O        108.7530   21.4720  127.3770 O.3   6055  MOL6055    -0.4105
  31164  H        109.0140   22.3430  127.7420 H     6055  MOL6055     0.2052
  31165  H        108.9550   20.7770  128.0560 H     6055  MOL6055     0.2052
  31166  O         91.8140   37.0510   67.0690 O.3   6056  MOL6056    -0.4105
  31167  H         91.3040   36.2200   67.1620 H     6056  MOL6056     0.2052
  31168  H         91.9360   37.2350   66.1020 H     6056  MOL6056     0.2052
  31169  O        109.3680  162.1190  239.9770 O.3   6057  MOL6057    -0.4105
  31170  H        110.2750  162.4100  239.7490 H     6057  MOL6057     0.2052
  31171  H        109.1380  161.3410  239.4040 H     6057  MOL6057     0.2052
  31172  O         15.1430   29.7120  210.8550 O.3   6058  MOL6058    -0.4105
  31173  H         15.4160   29.1040  211.5730 H     6058  MOL6058     0.2052
  31174  H         14.1960   29.5200  210.6290 H     6058  MOL6058     0.2052
  31175  O         79.1110  181.9940  222.9110 O.3   6059  MOL6059    -0.4105
  31176  H         78.7470  182.7510  223.4160 H     6059  MOL6059     0.2052
  31177  H         79.6490  181.4370  223.5310 H     6059  MOL6059     0.2052
  31178  O        135.6710  148.3110  217.1810 O.3   6060  MOL6060    -0.4105
  31179  H        136.1140  149.1670  217.3590 H     6060  MOL6060     0.2052
  31180  H        135.2580  147.9940  218.0260 H     6060  MOL6060     0.2052
  31181  O        151.3460  162.0870  153.8600 O.3   6061  MOL6061    -0.4105
  31182  H        150.7830  162.8870  153.7940 H     6061  MOL6061     0.2052
  31183  H        150.8580  161.3290  153.4450 H     6061  MOL6061     0.2052
  31184  O        111.6330   21.7950  137.7620 O.3   6062  MOL6062    -0.4105
  31185  H        111.2100   21.0310  138.2060 H     6062  MOL6062     0.2052
  31186  H        112.5530   21.5310  137.4990 H     6062  MOL6062     0.2052
  31187  O         59.6450    6.3990  124.5910 O.3   6063  MOL6063    -0.4105
  31188  H         59.7090    6.7690  125.4960 H     6063  MOL6063     0.2052
  31189  H         58.7810    6.6870  124.1980 H     6063  MOL6063     0.2052
  31190  O         59.2470   51.3180  219.5220 O.3   6064  MOL6064    -0.4105
  31191  H         60.1610   50.9640  219.4980 H     6064  MOL6064     0.2052
  31192  H         59.2970   52.3080  219.4960 H     6064  MOL6064     0.2052
  31193  O        151.3210  147.8200  249.7960 O.3   6065  MOL6065    -0.4105
  31194  H        150.6930  147.1840  249.3930 H     6065  MOL6065     0.2052
  31195  H        152.1560  147.8130  249.2600 H     6065  MOL6065     0.2052
  31196  O        153.9720   27.5340  254.7230 O.3   6066  MOL6066    -0.4105
  31197  H        153.5020   27.3220  255.5560 H     6066  MOL6066     0.2052
  31198  H        153.3130   27.5160  253.9810 H     6066  MOL6066     0.2052
  31199  O         47.1720   95.7000  173.2500 O.3   6067  MOL6067    -0.4105
  31200  H         47.9160   96.1250  173.7260 H     6067  MOL6067     0.2052
  31201  H         47.5300   94.9300  172.7370 H     6067  MOL6067     0.2052
  31202  O         32.4110   52.8630  194.4590 O.3   6068  MOL6068    -0.4105
  31203  H         32.3490   53.8370  194.5390 H     6068  MOL6068     0.2052
  31204  H         32.4580   52.4780  195.3730 H     6068  MOL6068     0.2052
  31205  O         55.9770   64.8060  205.1470 O.3   6069  MOL6069    -0.4105
  31206  H         55.2280   64.9430  204.5290 H     6069  MOL6069     0.2052
  31207  H         56.0960   63.8300  205.2800 H     6069  MOL6069     0.2052
  31208  O         75.7620   56.5870   40.6300 O.3   6070  MOL6070    -0.4105
  31209  H         75.4050   57.2320   41.2750 H     6070  MOL6070     0.2052
  31210  H         76.4150   57.0570   40.0490 H     6070  MOL6070     0.2052
  31211  O         63.3540  137.6040   60.4050 O.3   6071  MOL6071    -0.4105
  31212  H         62.5090  137.2050   60.7010 H     6071  MOL6071     0.2052
  31213  H         64.0190  136.8750   60.2920 H     6071  MOL6071     0.2052
  31214  O         58.2890  182.2330  160.3220 O.3   6072  MOL6072    -0.4105
  31215  H         58.1080  183.1930  160.2370 H     6072  MOL6072     0.2052
  31216  H         59.2660  182.1100  160.4390 H     6072  MOL6072     0.2052
  31217  O        108.0570   17.2470  202.3420 O.3   6073  MOL6073    -0.4105
  31218  H        108.8050   16.9620  201.7760 H     6073  MOL6073     0.2052
  31219  H        107.6120   16.4360  202.7010 H     6073  MOL6073     0.2052
  31220  O         70.7650   97.4890  203.9330 O.3   6074  MOL6074    -0.4105
  31221  H         71.5210   97.2310  203.3650 H     6074  MOL6074     0.2052
  31222  H         70.4120   96.6720  204.3710 H     6074  MOL6074     0.2052
  31223  O         92.1460  127.5320   53.3850 O.3   6075  MOL6075    -0.4105
  31224  H         92.2460  126.5610   53.4760 H     6075  MOL6075     0.2052
  31225  H         91.1780  127.7390   53.3140 H     6075  MOL6075     0.2052
  31226  O        178.4060   43.5390  121.7580 O.3   6076  MOL6076    -0.4105
  31227  H        178.7780   43.4640  120.8540 H     6076  MOL6076     0.2052
  31228  H        178.9370   42.9570  122.3610 H     6076  MOL6076     0.2052
  31229  O        145.2330    1.4020  193.4190 O.3   6077  MOL6077    -0.4105
  31230  H        145.9390    2.0430  193.1940 H     6077  MOL6077     0.2052
  31231  H        145.6580    0.5950  193.8100 H     6077  MOL6077     0.2052
  31232  O        130.3850  138.4200   55.7750 O.3   6078  MOL6078    -0.4105
  31233  H        129.9370  138.4520   54.9040 H     6078  MOL6078     0.2052
  31234  H        129.8460  137.8470   56.3800 H     6078  MOL6078     0.2052
  31235  O        181.1170   76.6730  207.1090 O.3   6079  MOL6079    -0.4105
  31236  H        180.9290   77.2150  207.9030 H     6079  MOL6079     0.2052
  31237  H        181.4760   75.7970  207.4090 H     6079  MOL6079     0.2052
  31238  O         64.8230  180.8830  290.0850 O.3   6080  MOL6080    -0.4105
  31239  H         63.9140  181.0720  290.3990 H     6080  MOL6080     0.2052
  31240  H         65.4130  181.6260  290.3750 H     6080  MOL6080     0.2052
  31241  O         89.1400  142.2120  274.0320 O.3   6081  MOL6081    -0.4105
  31242  H         88.9130  142.6310  273.1760 H     6081  MOL6081     0.2052
  31243  H         89.1240  141.2270  273.9090 H     6081  MOL6081     0.2052
  31244  O        115.2780  143.2310  271.5990 O.3   6082  MOL6082    -0.4105
  31245  H        115.0720  142.2730  271.5950 H     6082  MOL6082     0.2052
  31246  H        114.4420  143.7280  271.7990 H     6082  MOL6082     0.2052
  31247  O         29.7240  120.6620  154.0080 O.3   6083  MOL6083    -0.4105
  31248  H         28.9350  121.2250  154.1580 H     6083  MOL6083     0.2052
  31249  H         29.4870  119.7280  154.2420 H     6083  MOL6083     0.2052
  31250  O         49.2810   10.5700  151.3150 O.3   6084  MOL6084    -0.4105
  31251  H         49.7530    9.9740  150.6970 H     6084  MOL6084     0.2052
  31252  H         49.9020   11.2970  151.5810 H     6084  MOL6084     0.2052
  31253  O         11.8140  122.0520   82.6740 O.3   6085  MOL6085    -0.4105
  31254  H         12.5600  121.5850   82.2420 H     6085  MOL6085     0.2052
  31255  H         11.6630  122.9060   82.1930 H     6085  MOL6085     0.2052
  31256  O         42.3670    8.7160  238.5340 O.3   6086  MOL6086    -0.4105
  31257  H         42.4980    7.8330  238.9400 H     6086  MOL6086     0.2052
  31258  H         43.1250    9.2960  238.8030 H     6086  MOL6086     0.2052
  31259  O        109.9860  142.2740   36.5120 O.3   6087  MOL6087    -0.4105
  31260  H        109.8650  143.1370   36.0640 H     6087  MOL6087     0.2052
  31261  H        109.1070  141.9840   36.8710 H     6087  MOL6087     0.2052
  31262  O        168.4030  192.1710   57.8420 O.3   6088  MOL6088    -0.4105
  31263  H        168.7660  193.0810   57.8340 H     6088  MOL6088     0.2052
  31264  H        169.1530  191.5380   57.9870 H     6088  MOL6088     0.2052
  31265  O         49.7600  143.9060  265.7430 O.3   6089  MOL6089    -0.4105
  31266  H         50.1970  143.0550  265.5340 H     6089  MOL6089     0.2052
  31267  H         48.9260  143.9670  265.2080 H     6089  MOL6089     0.2052
  31268  O        145.9720   35.2660   25.6710 O.3   6090  MOL6090    -0.4105
  31269  H        145.3880   34.9870   26.4070 H     6090  MOL6090     0.2052
  31270  H        146.8150   35.6180   26.0600 H     6090  MOL6090     0.2052
  31271  O        195.5910  179.4720   75.5780 O.3   6091  MOL6091    -0.4105
  31272  H        195.1120  179.8600   74.8150 H     6091  MOL6091     0.2052
  31273  H        195.4900  180.0840   76.3520 H     6091  MOL6091     0.2052
  31274  O        180.2330  111.5510    2.4490 O.3   6092  MOL6092    -0.4105
  31275  H        179.6250  111.5720    3.2180 H     6092  MOL6092     0.2052
  31276  H        180.9820  112.1770    2.6280 H     6092  MOL6092     0.2052
  31277  O        174.7770  122.2250    1.8910 O.3   6093  MOL6093    -0.4105
  31278  H        175.5150  122.0190    1.2800 H     6093  MOL6093     0.2052
  31279  H        174.5560  121.4020    2.4000 H     6093  MOL6093     0.2052
  31280  O        149.8640  117.6860  245.5100 O.3   6094  MOL6094    -0.4105
  31281  H        149.7270  118.6550  245.4690 H     6094  MOL6094     0.2052
  31282  H        150.8360  117.5140  245.6130 H     6094  MOL6094     0.2052
  31283  O        181.3700  151.0630   83.0880 O.3   6095  MOL6095    -0.4105
  31284  H        182.2100  150.5580   83.0740 H     6095  MOL6095     0.2052
  31285  H        180.6190  150.4150   83.0970 H     6095  MOL6095     0.2052
  31286  O         27.5390   71.0330   11.1170 O.3   6096  MOL6096    -0.4105
  31287  H         27.2380   71.8250   11.6100 H     6096  MOL6096     0.2052
  31288  H         27.3960   70.2370   11.6910 H     6096  MOL6096     0.2052
  31289  O        112.6900   11.9520   49.1020 O.3   6097  MOL6097    -0.4105
  31290  H        113.5210   12.3120   49.4790 H     6097  MOL6097     0.2052
  31291  H        112.5490   12.3650   48.2110 H     6097  MOL6097     0.2052
  31292  O         45.7950   47.3330  171.4360 O.3   6098  MOL6098    -0.4105
  31293  H         44.9540   46.8430  171.3210 H     6098  MOL6098     0.2052
  31294  H         45.7070   47.9180  172.2320 H     6098  MOL6098     0.2052
  31295  O         43.6680   96.6540  292.5850 O.3   6099  MOL6099    -0.4105
  31296  H         43.3170   96.7930  291.6810 H     6099  MOL6099     0.2052
  31297  H         43.7650   95.6770  292.7330 H     6099  MOL6099     0.2052
  31298  O         43.5210  176.3680  165.4900 O.3   6100  MOL6100    -0.4105
  31299  H         42.9980  177.1910  165.5920 H     6100  MOL6100     0.2052
  31300  H         42.9170  175.5960  165.6420 H     6100  MOL6100     0.2052
  31301  O        131.3050   43.1100  171.8890 O.3   6101  MOL6101    -0.4105
  31302  H        132.1800   42.6740  171.8220 H     6101  MOL6101     0.2052
  31303  H        130.6050   42.4060  171.8800 H     6101  MOL6101     0.2052
  31304  O         66.4940  168.2300   26.4540 O.3   6102  MOL6102    -0.4105
  31305  H         66.8820  169.0000   26.9190 H     6102  MOL6102     0.2052
  31306  H         67.0680  167.4400   26.6290 H     6102  MOL6102     0.2052
  31307  O        157.3460  183.7530   25.8850 O.3   6103  MOL6103    -0.4105
  31308  H        158.1060  183.8210   26.5000 H     6103  MOL6103     0.2052
  31309  H        157.6760  183.3900   25.0220 H     6103  MOL6103     0.2052
  31310  O         36.6330   46.7110  284.5760 O.3   6104  MOL6104    -0.4105
  31311  H         36.3360   47.5260  284.1180 H     6104  MOL6104     0.2052
  31312  H         37.4330   46.3640  284.1040 H     6104  MOL6104     0.2052
  31313  O        198.8030    7.1900   94.1490 O.3   6105  MOL6105    -0.4105
  31314  H        198.5170    6.2530   94.1340 H     6105  MOL6105     0.2052
  31315  H        198.5960    7.5640   95.0440 H     6105  MOL6105     0.2052
  31316  O        173.0550    6.1990  274.6870 O.3   6106  MOL6106    -0.4105
  31317  H        172.9300    7.0790  274.2740 H     6106  MOL6106     0.2052
  31318  H        172.2370    5.6610  274.5240 H     6106  MOL6106     0.2052
  31319  O         10.7890  191.2020   43.9590 O.3   6107  MOL6107    -0.4105
  31320  H         10.7990  192.1790   43.8800 H     6107  MOL6107     0.2052
  31321  H         11.6920  190.8630   43.7230 H     6107  MOL6107     0.2052
  31322  O         59.9340  178.0430   73.8320 O.3   6108  MOL6108    -0.4105
  31323  H         60.5440  177.6150   73.1950 H     6108  MOL6108     0.2052
  31324  H         59.6220  178.8980   73.4360 H     6108  MOL6108     0.2052
  31325  O        155.0120    3.6730   23.8820 O.3   6109  MOL6109    -0.4105
  31326  H        154.8810    4.6270   23.6990 H     6109  MOL6109     0.2052
  31327  H        154.2570    3.1720   23.4760 H     6109  MOL6109     0.2052
  31328  O         41.0760   54.0580  106.2690 O.3   6110  MOL6110    -0.4105
  31329  H         40.7130   53.3400  105.7090 H     6110  MOL6110     0.2052
  31330  H         41.7850   53.6730  106.8460 H     6110  MOL6110     0.2052
  31331  O         55.7670   48.6510  228.3930 O.3   6111  MOL6111    -0.4105
  31332  H         55.3550   47.7630  228.4270 H     6111  MOL6111     0.2052
  31333  H         56.7530   48.5370  228.4130 H     6111  MOL6111     0.2052
  31334  O         83.4860   59.5200   51.2350 O.3   6112  MOL6112    -0.4105
  31335  H         84.0930   58.7520   51.1890 H     6112  MOL6112     0.2052
  31336  H         84.0160   60.3440   51.0790 H     6112  MOL6112     0.2052
  31337  O         48.6490   51.0380  279.0790 O.3   6113  MOL6113    -0.4105
  31338  H         49.5450   51.4290  279.0130 H     6113  MOL6113     0.2052
  31339  H         48.7450   50.0520  279.1450 H     6113  MOL6113     0.2052
  31340  O        118.0640  145.2260   14.6060 O.3   6114  MOL6114    -0.4105
  31341  H        118.5800  145.9470   15.0250 H     6114  MOL6114     0.2052
  31342  H        118.6980  144.6150   14.1490 H     6114  MOL6114     0.2052
  31343  O         28.5640   30.7090  167.2650 O.3   6115  MOL6115    -0.4105
  31344  H         28.2530   29.8570  166.8950 H     6115  MOL6115     0.2052
  31345  H         27.9320   31.4200  166.9810 H     6115  MOL6115     0.2052
  31346  O         46.4120  168.2530  159.5000 O.3   6116  MOL6116    -0.4105
  31347  H         46.5290  167.6070  158.7730 H     6116  MOL6116     0.2052
  31348  H         46.4770  169.1660  159.1170 H     6116  MOL6116     0.2052
  31349  O        116.2900   70.5070   51.3720 O.3   6117  MOL6117    -0.4105
  31350  H        115.4450   70.8870   51.6910 H     6117  MOL6117     0.2052
  31351  H        116.8590   70.3110   52.1620 H     6117  MOL6117     0.2052
  31352  O         57.6170  196.2530  196.6500 O.3   6118  MOL6118    -0.4105
  31353  H         56.8030  196.7750  196.8080 H     6118  MOL6118     0.2052
  31354  H         58.0250  196.5620  195.8000 H     6118  MOL6118     0.2052
  31355  O        126.5360  164.7230   50.6380 O.3   6119  MOL6119    -0.4105
  31356  H        127.1280  165.3790   50.2150 H     6119  MOL6119     0.2052
  31357  H        127.0370  163.8730   50.7410 H     6119  MOL6119     0.2052
  31358  O        181.2510   18.8090  109.3030 O.3   6120  MOL6120    -0.4105
  31359  H        181.7100   19.6600  109.1440 H     6120  MOL6120     0.2052
  31360  H        181.7460   18.3160  110.0080 H     6120  MOL6120     0.2052
  31361  O          2.3330  146.0750   79.5800 O.3   6121  MOL6121    -0.4105
  31362  H          1.7340  146.4360   80.2670 H     6121  MOL6121     0.2052
  31363  H          3.1720  146.6050   79.5900 H     6121  MOL6121     0.2052
  31364  O        149.5410  104.4190  209.7590 O.3   6122  MOL6122    -0.4105
  31365  H        149.6450  104.2860  210.7240 H     6122  MOL6122     0.2052
  31366  H        149.0690  105.2800  209.6140 H     6122  MOL6122     0.2052
  31367  O        130.0820  193.1770  279.2980 O.3   6123  MOL6123    -0.4105
  31368  H        130.5090  192.3220  279.0800 H     6123  MOL6123     0.2052
  31369  H        130.1540  193.3190  280.2770 H     6123  MOL6123     0.2052
  31370  O        168.2290  192.6380  285.0340 O.3   6124  MOL6124    -0.4105
  31371  H        168.5880  193.3390  284.4500 H     6124  MOL6124     0.2052
  31372  H        168.9710  192.0260  285.2760 H     6124  MOL6124     0.2052
  31373  O        156.4590   80.6800  185.3730 O.3   6125  MOL6125    -0.4105
  31374  H        157.4100   80.9130  185.3990 H     6125  MOL6125     0.2052
  31375  H        155.9340   81.5210  185.3430 H     6125  MOL6125     0.2052
  31376  O         21.5840  101.4400  132.2320 O.3   6126  MOL6126    -0.4105
  31377  H         21.9660  100.8310  132.8980 H     6126  MOL6126     0.2052
  31378  H         21.0150  102.1010  132.7060 H     6126  MOL6126     0.2052
  31379  O        148.2470   67.8040  169.4220 O.3   6127  MOL6127    -0.4105
  31380  H        147.9310   66.8770  169.4630 H     6127  MOL6127     0.2052
  31381  H        148.2890   68.0750  168.4690 H     6127  MOL6127     0.2052
  31382  O        184.8170  172.9370   77.6910 O.3   6128  MOL6128    -0.4105
  31383  H        184.9290  171.9660   77.6200 H     6128  MOL6128     0.2052
  31384  H        185.6920  173.3330   77.9440 H     6128  MOL6128     0.2052
  31385  O         98.4490   26.1740  272.1400 O.3   6129  MOL6129    -0.4105
  31386  H         99.3400   26.5360  272.3280 H     6129  MOL6129     0.2052
  31387  H         98.5530   25.2360  271.8330 H     6129  MOL6129     0.2052
  31388  O        118.0200  164.8780  245.3810 O.3   6130  MOL6130    -0.4105
  31389  H        118.4870  164.3500  246.0610 H     6130  MOL6130     0.2052
  31390  H        117.6600  164.2550  244.6970 H     6130  MOL6130     0.2052
  31391  O         29.0660  168.0630   75.9410 O.3   6131  MOL6131    -0.4105
  31392  H         30.0220  168.2090   76.0980 H     6131  MOL6131     0.2052
  31393  H         28.5790  168.8850   76.2100 H     6131  MOL6131     0.2052
  31394  O         51.0360  108.1310  292.9290 O.3   6132  MOL6132    -0.4105
  31395  H         50.8810  107.8950  293.8680 H     6132  MOL6132     0.2052
  31396  H         51.4190  109.0450  292.8990 H     6132  MOL6132     0.2052
  31397  O        176.6440  164.6220   92.6710 O.3   6133  MOL6133    -0.4105
  31398  H        176.3430  163.8750   93.2290 H     6133  MOL6133     0.2052
  31399  H        176.6860  165.4350   93.2370 H     6133  MOL6133     0.2052
  31400  O         49.8440  192.6070  271.2250 O.3   6134  MOL6134    -0.4105
  31401  H         50.1850  193.5230  271.2880 H     6134  MOL6134     0.2052
  31402  H         48.8520  192.6470  271.1980 H     6134  MOL6134     0.2052
  31403  O         65.3730   92.3940  205.4320 O.3   6135  MOL6135    -0.4105
  31404  H         66.0240   93.0470  205.7640 H     6135  MOL6135     0.2052
  31405  H         65.8690   91.5960  205.1130 H     6135  MOL6135     0.2052
  31406  O        127.7110  176.0220  214.3850 O.3   6136  MOL6136    -0.4105
  31407  H        127.5710  176.6050  213.6100 H     6136  MOL6136     0.2052
  31408  H        127.7270  175.0820  214.0680 H     6136  MOL6136     0.2052
  31409  O        158.1710  180.0470   32.3790 O.3   6137  MOL6137    -0.4105
  31410  H        157.2980  179.7310   32.6940 H     6137  MOL6137     0.2052
  31411  H        158.5720  179.3380   31.8120 H     6137  MOL6137     0.2052
  31412  O        161.3080  137.2310  217.1000 O.3   6138  MOL6138    -0.4105
  31413  H        161.8350  138.0280  216.8810 H     6138  MOL6138     0.2052
  31414  H        160.5270  137.1990  216.4880 H     6138  MOL6138     0.2052
  31415  O         38.0910  161.9600   24.3770 O.3   6139  MOL6139    -0.4105
  31416  H         37.7180  162.8630   24.2960 H     6139  MOL6139     0.2052
  31417  H         39.0800  162.0280   24.3370 H     6139  MOL6139     0.2052
  31418  O         94.3620  101.8300    3.4550 O.3   6140  MOL6140    -0.4105
  31419  H         95.2730  102.0050    3.7720 H     6140  MOL6140     0.2052
  31420  H         94.1950  100.8540    3.5120 H     6140  MOL6140     0.2052
  31421  O        126.2150  148.4130   49.7110 O.3   6141  MOL6141    -0.4105
  31422  H        126.1560  148.0090   48.8200 H     6141  MOL6141     0.2052
  31423  H        126.9480  147.9660   50.2070 H     6141  MOL6141     0.2052
  31424  O         64.8120  114.8530  284.4480 O.3   6142  MOL6142    -0.4105
  31425  H         63.8990  115.1260  284.2210 H     6142  MOL6142     0.2052
  31426  H         64.8280  113.8650  284.5370 H     6142  MOL6142     0.2052
  31427  O         79.8560  117.6040   37.1890 O.3   6143  MOL6143    -0.4105
  31428  H         79.2300  116.9200   37.5040 H     6143  MOL6143     0.2052
  31429  H         79.6970  118.4340   37.7100 H     6143  MOL6143     0.2052
  31430  O         54.5720   44.8120  204.4470 O.3   6144  MOL6144    -0.4105
  31431  H         53.8720   44.1270  204.4020 H     6144  MOL6144     0.2052
  31432  H         55.4490   44.3550  204.5280 H     6144  MOL6144     0.2052
  31433  O         62.8750   12.8640  119.4850 O.3   6145  MOL6145    -0.4105
  31434  H         63.5600   13.5090  119.7630 H     6145  MOL6145     0.2052
  31435  H         63.1610   12.4590  118.6260 H     6145  MOL6145     0.2052
  31436  O         11.8670  109.5540   38.9510 O.3   6146  MOL6146    -0.4105
  31437  H         11.1460  110.0490   39.3920 H     6146  MOL6146     0.2052
  31438  H         12.5300  110.2080   38.6090 H     6146  MOL6146     0.2052
  31439  O        156.2650  174.5670   55.7680 O.3   6147  MOL6147    -0.4105
  31440  H        156.2740  174.2530   54.8390 H     6147  MOL6147     0.2052
  31441  H        155.9730  173.8160   56.3470 H     6147  MOL6147     0.2052
  31442  O        152.1860  107.1690  291.8420 O.3   6148  MOL6148    -0.4105
  31443  H        152.9230  107.6950  292.2180 H     6148  MOL6148     0.2052
  31444  H        152.5190  106.2520  291.6630 H     6148  MOL6148     0.2052
  31445  O         48.5740  129.2020  289.4730 O.3   6149  MOL6149    -0.4105
  31446  H         49.1150  128.3880  289.3930 H     6149  MOL6149     0.2052
  31447  H         47.6170  128.9390  289.4870 H     6149  MOL6149     0.2052
  31448  O        164.9020  113.2360   47.0640 O.3   6150  MOL6150    -0.4105
  31449  H        164.8860  114.2110   47.1610 H     6150  MOL6150     0.2052
  31450  H        164.1940  112.8550   47.6450 H     6150  MOL6150     0.2052
  31451  O        123.4960   21.5790  279.8840 O.3   6151  MOL6151    -0.4105
  31452  H        123.8670   22.4860  279.9200 H     6151  MOL6151     0.2052
  31453  H        124.2320   20.9500  279.6680 H     6151  MOL6151     0.2052
  31454  O          5.6230  158.4290  113.4590 O.3   6152  MOL6152    -0.4105
  31455  H          5.8380  159.3490  113.1990 H     6152  MOL6152     0.2052
  31456  H          4.9130  158.4600  114.1520 H     6152  MOL6152     0.2052
  31457  O        141.3390   18.1580  296.5730 O.3   6153  MOL6153    -0.4105
  31458  H        140.8810   17.3300  296.8290 H     6153  MOL6153     0.2052
  31459  H        142.3020   18.0600  296.7930 H     6153  MOL6153     0.2052
  31460  O         39.4950   52.9340  282.8260 O.3   6154  MOL6154    -0.4105
  31461  H         38.6550   52.4670  283.0190 H     6154  MOL6154     0.2052
  31462  H         40.2000   52.5610  283.4160 H     6154  MOL6154     0.2052
  31463  O        171.0700  183.7060  107.1820 O.3   6155  MOL6155    -0.4105
  31464  H        170.1910  184.1230  107.0610 H     6155  MOL6155     0.2052
  31465  H        171.5750  183.7960  106.3320 H     6155  MOL6155     0.2052
  31466  O        198.0290   51.8920  163.4150 O.3   6156  MOL6156    -0.4105
  31467  H        198.7910   51.6130  162.8650 H     6156  MOL6156     0.2052
  31468  H        197.4460   52.4770  162.8640 H     6156  MOL6156     0.2052
  31469  O        187.1820  159.8180  111.5500 O.3   6157  MOL6157    -0.4105
  31470  H        186.7760  158.9300  111.6370 H     6157  MOL6157     0.2052
  31471  H        188.1450  159.7000  111.3430 H     6157  MOL6157     0.2052
  31472  O        191.0750  178.4590   95.5370 O.3   6158  MOL6158    -0.4105
  31473  H        190.3630  178.5040   96.2090 H     6158  MOL6158     0.2052
  31474  H        191.1860  177.5120   95.2650 H     6158  MOL6158     0.2052
  31475  O        122.5590  114.0780   74.1470 O.3   6159  MOL6159    -0.4105
  31476  H        121.9730  113.3000   74.0360 H     6159  MOL6159     0.2052
  31477  H        121.9990  114.8960   74.1130 H     6159  MOL6159     0.2052
  31478  O        141.5830  118.1240   68.7190 O.3   6160  MOL6160    -0.4105
  31479  H        141.9710  117.2350   68.5820 H     6160  MOL6160     0.2052
  31480  H        142.1470  118.6110   69.3750 H     6160  MOL6160     0.2052
  31481  O        157.3640  197.6600  280.7530 O.3   6161  MOL6161    -0.4105
  31482  H        157.7660  198.5000  280.4470 H     6161  MOL6161     0.2052
  31483  H        157.2830  197.6960  281.7410 H     6161  MOL6161     0.2052
  31484  O        133.1450   58.4370   65.8320 O.3   6162  MOL6162    -0.4105
  31485  H        132.6510   58.0690   65.0700 H     6162  MOL6162     0.2052
  31486  H        133.2200   59.4190   65.7080 H     6162  MOL6162     0.2052
  31487  O        105.7690  137.0480    9.4750 O.3   6163  MOL6163    -0.4105
  31488  H        105.6390  136.5390   10.3030 H     6163  MOL6163     0.2052
  31489  H        105.4210  136.5060    8.7200 H     6163  MOL6163     0.2052
  31490  O         78.9170   61.1210  177.0390 O.3   6164  MOL6164    -0.4105
  31491  H         79.6800   61.7200  176.9050 H     6164  MOL6164     0.2052
  31492  H         79.1520   60.4730  177.7530 H     6164  MOL6164     0.2052
  31493  O        102.5260   73.1440  171.8820 O.3   6165  MOL6165    -0.4105
  31494  H        103.4730   72.9170  171.7740 H     6165  MOL6165     0.2052
  31495  H        102.0690   72.3720  172.3060 H     6165  MOL6165     0.2052
  31496  O         42.5830   99.7210  235.6940 O.3   6166  MOL6166    -0.4105
  31497  H         42.1530  100.4660  236.1640 H     6166  MOL6166     0.2052
  31498  H         41.8760   99.1840  235.2510 H     6166  MOL6166     0.2052
  31499  O        169.1380   41.8260  100.7140 O.3   6167  MOL6167    -0.4105
  31500  H        169.7960   42.5250  100.5150 H     6167  MOL6167     0.2052
  31501  H        168.2590   42.2610  100.8600 H     6167  MOL6167     0.2052
  31502  O          4.7560   31.0410  216.7110 O.3   6168  MOL6168    -0.4105
  31503  H          5.3180   30.4690  217.2750 H     6168  MOL6168     0.2052
  31504  H          5.3120   31.7930  216.3800 H     6168  MOL6168     0.2052
  31505  O         27.6670  167.2540   42.8740 O.3   6169  MOL6169    -0.4105
  31506  H         27.7400  167.7240   43.7310 H     6169  MOL6169     0.2052
  31507  H         26.7630  166.8480   42.8190 H     6169  MOL6169     0.2052
  31508  O         19.9830  174.3040  186.5730 O.3   6170  MOL6170    -0.4105
  31509  H         19.7560  173.4060  186.8940 H     6170  MOL6170     0.2052
  31510  H         20.7140  174.2210  185.9070 H     6170  MOL6170     0.2052
  31511  O          2.7310   34.9160   33.8270 O.3   6171  MOL6171    -0.4105
  31512  H          2.0490   35.2680   33.2170 H     6171  MOL6171     0.2052
  31513  H          3.0960   34.0810   33.4350 H     6171  MOL6171     0.2052
  31514  O          6.5890  111.1380  231.3590 O.3   6172  MOL6172    -0.4105
  31515  H          6.4010  110.4390  232.0200 H     6172  MOL6172     0.2052
  31516  H          5.8070  111.2090  230.7520 H     6172  MOL6172     0.2052
  31517  O         52.1840   99.5570   18.0070 O.3   6173  MOL6173    -0.4105
  31518  H         53.0840   99.6230   18.3870 H     6173  MOL6173     0.2052
  31519  H         51.9240  100.4530   17.6670 H     6173  MOL6173     0.2052
  31520  O        156.5050  157.7850  180.7270 O.3   6174  MOL6174    -0.4105
  31521  H        156.9860  157.1290  181.2730 H     6174  MOL6174     0.2052
  31522  H        156.9440  157.8290  179.8380 H     6174  MOL6174     0.2052
  31523  O        140.0520   30.7490  277.5100 O.3   6175  MOL6175    -0.4105
  31524  H        140.6440   30.8500  276.7360 H     6175  MOL6175     0.2052
  31525  H        140.4190   31.2910  278.2550 H     6175  MOL6175     0.2052
  31526  O        169.3270   57.6820  278.5990 O.3   6176  MOL6176    -0.4105
  31527  H        168.3570   57.5460  278.6080 H     6176  MOL6176     0.2052
  31528  H        169.7660   56.7920  278.6220 H     6176  MOL6176     0.2052
  31529  O         26.8870  132.0450  197.7310 O.3   6177  MOL6177    -0.4105
  31530  H         27.3510  132.9070  197.7660 H     6177  MOL6177     0.2052
  31531  H         25.9720  132.1990  197.3780 H     6177  MOL6177     0.2052
  31532  O         86.1720   54.5220  144.7470 O.3   6178  MOL6178    -0.4105
  31533  H         85.4800   55.2160  144.7140 H     6178  MOL6178     0.2052
  31534  H         87.0590   54.9660  144.7180 H     6178  MOL6178     0.2052
  31535  O         87.9320  154.7420  141.3840 O.3   6179  MOL6179    -0.4105
  31536  H         88.4060  155.4840  140.9550 H     6179  MOL6179     0.2052
  31537  H         86.9570  154.9140  141.3140 H     6179  MOL6179     0.2052
  31538  O        194.4970   57.1070  172.5890 O.3   6180  MOL6180    -0.4105
  31539  H        194.2340   57.3280  173.5060 H     6180  MOL6180     0.2052
  31540  H        194.9100   57.9130  172.1820 H     6180  MOL6180     0.2052
  31541  O        155.5320   23.8400  169.4950 O.3   6181  MOL6181    -0.4105
  31542  H        155.5480   24.8200  169.5280 H     6181  MOL6181     0.2052
  31543  H        154.5940   23.5400  169.6110 H     6181  MOL6181     0.2052
  31544  O        158.8680   36.1940   85.0020 O.3   6182  MOL6182    -0.4105
  31545  H        159.7900   36.1440   84.6750 H     6182  MOL6182     0.2052
  31546  H        158.3160   35.5600   84.4750 H     6182  MOL6182     0.2052
  31547  O        197.1950   94.1060   34.6630 O.3   6183  MOL6183    -0.4105
  31548  H        196.4510   94.7430   34.6510 H     6183  MOL6183     0.2052
  31549  H        198.0380   94.6090   34.5170 H     6183  MOL6183     0.2052
  31550  O        121.9130  167.7130   10.4850 O.3   6184  MOL6184    -0.4105
  31551  H        122.3880  168.3530    9.9150 H     6184  MOL6184     0.2052
  31552  H        121.3870  168.2240   11.1540 H     6184  MOL6184     0.2052
  31553  O        175.5510   31.2940  238.6750 O.3   6185  MOL6185    -0.4105
  31554  H        175.7690   32.1200  239.1550 H     6185  MOL6185     0.2052
  31555  H        174.9490   30.7510  239.2480 H     6185  MOL6185     0.2052
  31556  O         84.9580   70.2930   34.2700 O.3   6186  MOL6186    -0.4105
  31557  H         84.8730   71.2690   34.2700 H     6186  MOL6186     0.2052
  31558  H         85.9130   70.0640   34.1280 H     6186  MOL6186     0.2052
  31559  O         45.4930   55.5850  111.1550 O.3   6187  MOL6187    -0.4105
  31560  H         44.9730   54.9490  110.6210 H     6187  MOL6187     0.2052
  31561  H         46.4530   55.4610  110.9370 H     6187  MOL6187     0.2052
  31562  O         59.9810  169.5290   64.7460 O.3   6188  MOL6188    -0.4105
  31563  H         59.4200  170.3290   64.6730 H     6188  MOL6188     0.2052
  31564  H         60.9120  169.8180   64.9340 H     6188  MOL6188     0.2052
  31565  O          5.5730  145.3410  154.1360 O.3   6189  MOL6189    -0.4105
  31566  H          6.1730  146.1150  154.1010 H     6189  MOL6189     0.2052
  31567  H          5.0790  145.3700  154.9960 H     6189  MOL6189     0.2052
  31568  O        124.5420   92.3860   23.0010 O.3   6190  MOL6190    -0.4105
  31569  H        125.0200   93.1760   22.6730 H     6190  MOL6190     0.2052
  31570  H        123.7780   92.2100   22.3920 H     6190  MOL6190     0.2052
  31571  O         97.7740  162.3760  287.1600 O.3   6191  MOL6191    -0.4105
  31572  H         97.0270  161.7510  287.0470 H     6191  MOL6191     0.2052
  31573  H         97.5260  163.2370  286.7340 H     6191  MOL6191     0.2052
  31574  O        124.3970  178.0860  212.3690 O.3   6192  MOL6192    -0.4105
  31575  H        123.8960  178.1430  211.5280 H     6192  MOL6192     0.2052
  31576  H        124.4580  177.1300  212.6290 H     6192  MOL6192     0.2052
  31577  O         16.1250  138.1770   61.1560 O.3   6193  MOL6193    -0.4105
  31578  H         16.3600  138.5020   62.0500 H     6193  MOL6193     0.2052
  31579  H         15.6180  138.8910   60.6890 H     6193  MOL6193     0.2052
  31580  O         53.1120  125.8120  247.6420 O.3   6194  MOL6194    -0.4105
  31581  H         53.1280  126.3130  246.8000 H     6194  MOL6194     0.2052
  31582  H         53.5690  126.3550  248.3350 H     6194  MOL6194     0.2052
  31583  O         80.6750  117.9270  285.6260 O.3   6195  MOL6195    -0.4105
  31584  H         80.7470  117.0130  285.2810 H     6195  MOL6195     0.2052
  31585  H         81.5370  118.1650  286.0560 H     6195  MOL6195     0.2052
  31586  O        173.7150  134.3030  159.5240 O.3   6196  MOL6196    -0.4105
  31587  H        173.7560  133.3230  159.5360 H     6196  MOL6196     0.2052
  31588  H        173.6460  134.5990  158.5800 H     6196  MOL6196     0.2052
  31589  O        132.5560  107.5940    8.9270 O.3   6197  MOL6197    -0.4105
  31590  H        132.6380  107.1340    8.0650 H     6197  MOL6197     0.2052
  31591  H        132.8480  106.9700    9.6410 H     6197  MOL6197     0.2052
  31592  O        156.9670  178.0110  161.6170 O.3   6198  MOL6198    -0.4105
  31593  H        156.7550  177.5740  162.4680 H     6198  MOL6198     0.2052
  31594  H        157.7260  177.5260  161.1990 H     6198  MOL6198     0.2052
  31595  O        138.1240  143.3590  245.8060 O.3   6199  MOL6199    -0.4105
  31596  H        138.6610  144.1780  245.8440 H     6199  MOL6199     0.2052
  31597  H        137.1660  143.6150  245.8160 H     6199  MOL6199     0.2052
  31598  O         18.7890   11.7280   51.5240 O.3   6200  MOL6200    -0.4105
  31599  H         18.7200   11.7340   50.5460 H     6200  MOL6200     0.2052
  31600  H         17.9970   11.2540   51.8880 H     6200  MOL6200     0.2052
  31601  O        138.2740  105.9900   24.7430 O.3   6201  MOL6201    -0.4105
  31602  H        137.7150  106.1640   23.9570 H     6201  MOL6201     0.2052
  31603  H        138.8420  105.1990   24.5510 H     6201  MOL6201     0.2052
  31604  O         40.6720  172.2800  218.8290 O.3   6202  MOL6202    -0.4105
  31605  H         40.1020  172.7990  218.2240 H     6202  MOL6202     0.2052
  31606  H         41.5280  172.7680  218.9440 H     6202  MOL6202     0.2052
  31607  O        195.4490   92.5350  180.3190 O.3   6203  MOL6203    -0.4105
  31608  H        195.8710   91.8980  179.7050 H     6203  MOL6203     0.2052
  31609  H        194.6060   92.1330  180.6530 H     6203  MOL6203     0.2052
  31610  O         78.9000  184.4880  226.2890 O.3   6204  MOL6204    -0.4105
  31611  H         78.0830  185.0160  226.4080 H     6204  MOL6204     0.2052
  31612  H         79.6700  185.1130  226.2470 H     6204  MOL6204     0.2052
  31613  O        160.4890   82.5870  238.2350 O.3   6205  MOL6205    -0.4105
  31614  H        160.5340   82.4130  239.1990 H     6205  MOL6205     0.2052
  31615  H        161.3600   82.3310  237.8330 H     6205  MOL6205     0.2052
  31616  O         90.6020  102.2850    7.0730 O.3   6206  MOL6206    -0.4105
  31617  H         91.5130  102.6460    7.0810 H     6206  MOL6206     0.2052
  31618  H         90.2530  102.3430    6.1450 H     6206  MOL6206     0.2052
  31619  O        158.8840   22.1100   15.6470 O.3   6207  MOL6207    -0.4105
  31620  H        159.5410   22.1760   16.3710 H     6207  MOL6207     0.2052
  31621  H        159.0420   21.2590   15.1610 H     6207  MOL6207     0.2052
  31622  O        156.2640  150.9640   74.7130 O.3   6208  MOL6208    -0.4105
  31623  H        155.8750  151.7440   75.1620 H     6208  MOL6208     0.2052
  31624  H        155.9840  150.9810   73.7610 H     6208  MOL6208     0.2052
  31625  O         60.0410  158.5530   87.3110 O.3   6209  MOL6209    -0.4105
  31626  H         60.5830  159.3690   87.3250 H     6209  MOL6209     0.2052
  31627  H         60.6540  157.7730   87.3020 H     6209  MOL6209     0.2052
  31628  O        138.9460  176.1050   61.5110 O.3   6210  MOL6210    -0.4105
  31629  H        139.5810  176.7520   61.1390 H     6210  MOL6210     0.2052
  31630  H        139.3620  175.6870   62.3090 H     6210  MOL6210     0.2052
  31631  O        113.1940   22.6650  278.6380 O.3   6211  MOL6211    -0.4105
  31632  H        113.1620   23.4230  278.0180 H     6211  MOL6211     0.2052
  31633  H        113.8840   22.0290  278.3150 H     6211  MOL6211     0.2052
  31634  O         72.1390   34.4250  164.7860 O.3   6212  MOL6212    -0.4105
  31635  H         71.9850   33.9250  165.6140 H     6212  MOL6212     0.2052
  31636  H         72.0560   35.3930  164.9870 H     6212  MOL6212     0.2052
  31637  O        167.4360  103.2690  199.0310 O.3   6213  MOL6213    -0.4105
  31638  H        166.6490  102.7190  198.8340 H     6213  MOL6213     0.2052
  31639  H        168.0810  103.1670  198.2850 H     6213  MOL6213     0.2052
  31640  O          8.8870   45.7280  143.0380 O.3   6214  MOL6214    -0.4105
  31641  H          9.1100   44.8020  143.2670 H     6214  MOL6214     0.2052
  31642  H          8.8640   46.2590  143.8760 H     6214  MOL6214     0.2052
  31643  O         37.9380   59.9880   59.8280 O.3   6215  MOL6215    -0.4105
  31644  H         37.9990   60.9650   59.8840 H     6215  MOL6215     0.2052
  31645  H         38.8570   59.6170   59.8790 H     6215  MOL6215     0.2052
  31646  O        169.0830   60.0940   94.7050 O.3   6216  MOL6216    -0.4105
  31647  H        169.2070   59.5180   95.4890 H     6216  MOL6216     0.2052
  31648  H        169.0960   61.0380   95.0090 H     6216  MOL6216     0.2052
  31649  O         55.6010    6.1420  129.1450 O.3   6217  MOL6217    -0.4105
  31650  H         55.0220    6.6750  128.5620 H     6217  MOL6217     0.2052
  31651  H         56.1050    6.7610  129.7330 H     6217  MOL6217     0.2052
  31652  O        122.6530  191.7280   92.5330 O.3   6218  MOL6218    -0.4105
  31653  H        123.3410  192.3260   92.8950 H     6218  MOL6218     0.2052
  31654  H        123.0140  190.8040   92.5350 H     6218  MOL6218     0.2052
  31655  O        196.7950   72.1520   39.6420 O.3   6219  MOL6219    -0.4105
  31656  H        197.6440   71.6640   39.6250 H     6219  MOL6219     0.2052
  31657  H        196.9960   73.1240   39.6340 H     6219  MOL6219     0.2052
  31658  O         44.6070   62.7040   55.3970 O.3   6220  MOL6220    -0.4105
  31659  H         45.4890   62.5690   54.9920 H     6220  MOL6220     0.2052
  31660  H         43.9520   62.1400   54.9090 H     6220  MOL6220     0.2052
  31661  O        187.8610   71.0890  245.9110 O.3   6221  MOL6221    -0.4105
  31662  H        188.6620   70.6330  245.5770 H     6221  MOL6221     0.2052
  31663  H        187.6450   70.7190  246.8060 H     6221  MOL6221     0.2052
  31664  O         56.0720   43.4010  156.7250 O.3   6222  MOL6222    -0.4105
  31665  H         56.6920   44.1240  156.4970 H     6222  MOL6222     0.2052
  31666  H         56.5980   42.5690  156.8510 H     6222  MOL6222     0.2052
  31667  O        183.1730   41.5680  231.2760 O.3   6223  MOL6223    -0.4105
  31668  H        183.8980   41.8820  231.8550 H     6223  MOL6223     0.2052
  31669  H        183.1380   42.1550  230.4770 H     6223  MOL6223     0.2052
  31670  O        142.4290  131.9710   66.9930 O.3   6224  MOL6224    -0.4105
  31671  H        142.1870  132.9210   66.9900 H     6224  MOL6224     0.2052
  31672  H        142.5690  131.6900   67.9350 H     6224  MOL6224     0.2052
  31673  O         50.6640   45.5460   59.5930 O.3   6225  MOL6225    -0.4105
  31674  H         49.7220   45.8160   59.6290 H     6225  MOL6225     0.2052
  31675  H         51.2240   46.3620   59.6670 H     6225  MOL6225     0.2052
  31676  O         70.7320   80.9870   16.1770 O.3   6226  MOL6226    -0.4105
  31677  H         70.9410   80.2880   16.8320 H     6226  MOL6226     0.2052
  31678  H         70.6550   80.5610   15.2830 H     6226  MOL6226     0.2052
  31679  O         33.6330  137.0430  169.1750 O.3   6227  MOL6227    -0.4105
  31680  H         33.9200  136.2750  169.7120 H     6227  MOL6227     0.2052
  31681  H         33.1070  137.6500  169.7570 H     6227  MOL6227     0.2052
  31682  O        161.4020  195.4640   65.8190 O.3   6228  MOL6228    -0.4105
  31683  H        161.4600  194.4920   65.7050 H     6228  MOL6228     0.2052
  31684  H        162.2370  195.7750   66.2570 H     6228  MOL6228     0.2052
  31685  O         91.2770  104.8220   10.2610 O.3   6229  MOL6229    -0.4105
  31686  H         91.7800  104.7240   11.0970 H     6229  MOL6229     0.2052
  31687  H         91.9270  104.9120    9.5170 H     6229  MOL6229     0.2052
  31688  O         44.3690  115.3070  109.2080 O.3   6230  MOL6230    -0.4105
  31689  H         45.2880  115.0070  109.3680 H     6230  MOL6230     0.2052
  31690  H         44.3910  116.0190  108.5170 H     6230  MOL6230     0.2052
  31691  O         82.0280   58.4350  187.3390 O.3   6231  MOL6231    -0.4105
  31692  H         82.2980   58.8980  186.5190 H     6231  MOL6231     0.2052
  31693  H         81.0400   58.3440  187.3330 H     6231  MOL6231     0.2052
  31694  O         78.8670  155.8530  151.2910 O.3   6232  MOL6232    -0.4105
  31695  H         79.7880  156.0290  151.0050 H     6232  MOL6232     0.2052
  31696  H         78.2890  155.8390  150.4850 H     6232  MOL6232     0.2052
  31697  O         31.6180  134.8600  130.4360 O.3   6233  MOL6233    -0.4105
  31698  H         32.2740  134.1340  130.3910 H     6233  MOL6233     0.2052
  31699  H         30.7120  134.4570  130.4820 H     6233  MOL6233     0.2052
  31700  O        190.7060   29.4410  285.3490 O.3   6234  MOL6234    -0.4105
  31701  H        190.6540   28.6680  284.7490 H     6234  MOL6234     0.2052
  31702  H        190.0020   29.3440  286.0420 H     6234  MOL6234     0.2052
  31703  O         96.3270   56.1490  214.8340 O.3   6235  MOL6235    -0.4105
  31704  H         96.9670   55.4070  214.8110 H     6235  MOL6235     0.2052
  31705  H         96.8370   57.0000  214.8520 H     6235  MOL6235     0.2052
  31706  O         28.1690   34.5260  137.1390 O.3   6236  MOL6236    -0.4105
  31707  H         28.7980   35.2780  137.1550 H     6236  MOL6236     0.2052
  31708  H         28.6910   33.6850  137.0720 H     6236  MOL6236     0.2052
  31709  O         12.7740   27.2070  181.8190 O.3   6237  MOL6237    -0.4105
  31710  H         12.0830   27.8730  182.0180 H     6237  MOL6237     0.2052
  31711  H         12.4360   26.3160  182.0970 H     6237  MOL6237     0.2052
  31712  O         45.4040   55.1790   16.6710 O.3   6238  MOL6238    -0.4105
  31713  H         45.4600   54.2020   16.7280 H     6238  MOL6238     0.2052
  31714  H         44.4500   55.4290   16.5590 H     6238  MOL6238     0.2052
  31715  O         81.3940   39.1630  209.4820 O.3   6239  MOL6239    -0.4105
  31716  H         81.2980   39.7900  210.2290 H     6239  MOL6239     0.2052
  31717  H         81.1520   38.2560  209.8030 H     6239  MOL6239     0.2052
  31718  O        157.4670   20.6070  267.5780 O.3   6240  MOL6240    -0.4105
  31719  H        158.3370   20.7800  267.1600 H     6240  MOL6240     0.2052
  31720  H        157.5500   19.7930  268.1410 H     6240  MOL6240     0.2052
  31721  O        103.5950   31.4730  156.3130 O.3   6241  MOL6241    -0.4105
  31722  H        103.1250   30.9690  157.0100 H     6241  MOL6241     0.2052
  31723  H        104.5170   31.1160  156.2380 H     6241  MOL6241     0.2052
  31724  O         24.9670   66.2630  271.2580 O.3   6242  MOL6242    -0.4105
  31725  H         25.1830   66.1010  272.2000 H     6242  MOL6242     0.2052
  31726  H         24.0790   66.7040  271.2160 H     6242  MOL6242     0.2052
  31727  O        122.8880   78.6660  189.5470 O.3   6243  MOL6243    -0.4105
  31728  H        122.7860   78.7070  188.5730 H     6243  MOL6243     0.2052
  31729  H        122.2410   79.2990  189.9540 H     6243  MOL6243     0.2052
  31730  O         72.1980   27.0190  244.3770 O.3   6244  MOL6244    -0.4105
  31731  H         72.5040   27.9410  244.2490 H     6244  MOL6244     0.2052
  31732  H         72.9970   26.4350  244.4590 H     6244  MOL6244     0.2052
  31733  O        155.7850  185.1870  261.0310 O.3   6245  MOL6245    -0.4105
  31734  H        155.3490  184.3130  260.9530 H     6245  MOL6245     0.2052
  31735  H        156.2100  185.2430  261.9260 H     6245  MOL6245     0.2052
  31736  O         71.7290   11.4410  237.2200 O.3   6246  MOL6246    -0.4105
  31737  H         71.3580   12.1430  236.6460 H     6246  MOL6246     0.2052
  31738  H         71.1360   10.6480  237.1640 H     6246  MOL6246     0.2052
  31739  O        105.2730   31.8080   23.6130 O.3   6247  MOL6247    -0.4105
  31740  H        104.8980   32.7100   23.5340 H     6247  MOL6247     0.2052
  31741  H        104.5220   31.1630   23.6770 H     6247  MOL6247     0.2052
  31742  O          6.1550   54.5660  201.2020 O.3   6248  MOL6248    -0.4105
  31743  H          5.4620   55.0770  200.7360 H     6248  MOL6248     0.2052
  31744  H          7.0210   54.7270  200.7440 H     6248  MOL6248     0.2052
  31745  O         98.3850   89.3770    0.9170 O.3   6249  MOL6249    -0.4105
  31746  H         97.4490   89.1780    1.1300 H     6249  MOL6249     0.2052
  31747  H         98.9100   88.5400    1.0100 H     6249  MOL6249     0.2052
  31748  O         66.1780   20.8790   67.9560 O.3   6250  MOL6250    -0.4105
  31749  H         66.5630   20.8690   67.0550 H     6250  MOL6250     0.2052
  31750  H         66.8590   21.2410   68.5810 H     6250  MOL6250     0.2052
  31751  O        152.8540   12.3230  208.2940 O.3   6251  MOL6251    -0.4105
  31752  H        153.8000   12.2650  208.0470 H     6251  MOL6251     0.2052
  31753  H        152.7820   12.8600  209.1260 H     6251  MOL6251     0.2052
  31754  O        171.7360   24.1470  285.1430 O.3   6252  MOL6252    -0.4105
  31755  H        171.1950   23.3410  285.2760 H     6252  MOL6252     0.2052
  31756  H        172.6340   23.9870  285.5340 H     6252  MOL6252     0.2052
  31757  O        109.2410   62.6910   43.0420 O.3   6253  MOL6253    -0.4105
  31758  H        109.8030   62.2660   43.7240 H     6253  MOL6253     0.2052
  31759  H        109.8350   63.0650   42.3410 H     6253  MOL6253     0.2052
  31760  O        165.2130    2.4220  192.7930 O.3   6254  MOL6254    -0.4105
  31761  H        166.1570    2.4380  193.0560 H     6254  MOL6254     0.2052
  31762  H        164.7200    3.0650  193.3660 H     6254  MOL6254     0.2052
  31763  O         71.0940  167.4370  115.8370 O.3   6255  MOL6255    -0.4105
  31764  H         70.4770  167.3520  116.5930 H     6255  MOL6255     0.2052
  31765  H         70.8060  166.8050  115.1290 H     6255  MOL6255     0.2052
  31766  O         72.5160   11.8240  195.2650 O.3   6256  MOL6256    -0.4105
  31767  H         72.6130   10.8590  195.4080 H     6256  MOL6256     0.2052
  31768  H         71.8200   12.1610  195.8860 H     6256  MOL6256     0.2052
  31769  O         25.3470  193.5880  161.8580 O.3   6257  MOL6257    -0.4105
  31770  H         26.2750  193.4370  162.1350 H     6257  MOL6257     0.2052
  31771  H         24.9310  192.7050  161.6750 H     6257  MOL6257     0.2052
  31772  O         79.2240  170.5000   11.8540 O.3   6258  MOL6258    -0.4105
  31773  H         80.1930  170.6020   11.9610 H     6258  MOL6258     0.2052
  31774  H         78.8160  171.4050   11.8500 H     6258  MOL6258     0.2052
  31775  O         99.3510   18.1200   64.0880 O.3   6259  MOL6259    -0.4105
  31776  H         98.5480   18.4040   64.5740 H     6259  MOL6259     0.2052
  31777  H         99.0850   17.4310   63.4250 H     6259  MOL6259     0.2052
  31778  O        103.8250  192.7840  217.5120 O.3   6260  MOL6260    -0.4105
  31779  H        104.6180  193.3470  217.3910 H     6260  MOL6260     0.2052
  31780  H        103.3980  193.0290  218.3730 H     6260  MOL6260     0.2052
  31781  O        147.0330   44.8150  242.8740 O.3   6261  MOL6261    -0.4105
  31782  H        147.1510   45.7740  243.0380 H     6261  MOL6261     0.2052
  31783  H        147.7470   44.3260  243.3590 H     6261  MOL6261     0.2052
  31784  O        183.0220   33.9300  182.6250 O.3   6262  MOL6262    -0.4105
  31785  H        183.8730   34.2810  182.2900 H     6262  MOL6262     0.2052
  31786  H        182.5850   34.6390  183.1640 H     6262  MOL6262     0.2052
  31787  O         63.3500   25.5740  220.7730 O.3   6263  MOL6263    -0.4105
  31788  H         63.9240   24.8330  220.4880 H     6263  MOL6263     0.2052
  31789  H         63.9300   26.3480  220.9940 H     6263  MOL6263     0.2052
  31790  O        185.8640  145.7860  129.9200 O.3   6264  MOL6264    -0.4105
  31791  H        186.3860  146.5840  130.1420 H     6264  MOL6264     0.2052
  31792  H        185.3790  145.4940  130.7350 H     6264  MOL6264     0.2052
  31793  O        197.5100  111.2300   21.1690 O.3   6265  MOL6265    -0.4105
  31794  H        197.1050  110.3560   20.9870 H     6265  MOL6265     0.2052
  31795  H        196.8730  111.7590   21.7170 H     6265  MOL6265     0.2052
  31796  O        156.9850  197.4190  175.4150 O.3   6266  MOL6266    -0.4105
  31797  H        156.9370  196.4440  175.3240 H     6266  MOL6266     0.2052
  31798  H        156.0640  197.7820  175.3600 H     6266  MOL6266     0.2052
  31799  O        156.0990  103.1030  225.5990 O.3   6267  MOL6267    -0.4105
  31800  H        157.0470  103.1010  225.8500 H     6267  MOL6267     0.2052
  31801  H        155.8670  104.0110  225.2740 H     6267  MOL6267     0.2052
  31802  O         99.3090  130.7340   70.5750 O.3   6268  MOL6268    -0.4105
  31803  H         99.5950  130.8620   69.6470 H     6268  MOL6268     0.2052
  31804  H         98.5100  131.3010   70.7340 H     6268  MOL6268     0.2052
  31805  O        177.2850   96.7610  211.4180 O.3   6269  MOL6269    -0.4105
  31806  H        177.6060   97.4030  212.0860 H     6269  MOL6269     0.2052
  31807  H        177.3500   97.1850  210.5230 H     6269  MOL6269     0.2052
  31808  O         65.5440   75.0480   53.0310 O.3   6270  MOL6270    -0.4105
  31809  H         66.1580   74.3780   52.6650 H     6270  MOL6270     0.2052
  31810  H         65.7060   75.1170   54.0080 H     6270  MOL6270     0.2052
  31811  O        160.6310  186.4430  160.4350 O.3   6271  MOL6271    -0.4105
  31812  H        159.8860  185.8670  160.7060 H     6271  MOL6271     0.2052
  31813  H        160.2610  187.2070  159.9200 H     6271  MOL6271     0.2052
  31814  O        196.7420    5.7760  227.6300 O.3   6272  MOL6272    -0.4105
  31815  H        197.0440    4.9550  227.1880 H     6272  MOL6272     0.2052
  31816  H        195.8150    5.6310  227.9540 H     6272  MOL6272     0.2052
  31817  O        148.5650  190.6650  203.0700 O.3   6273  MOL6273    -0.4105
  31818  H        149.0940  190.5250  203.8830 H     6273  MOL6273     0.2052
  31819  H        148.9130  191.4710  202.6080 H     6273  MOL6273     0.2052
  31820  O         54.7180   38.5100  187.2090 O.3   6274  MOL6274    -0.4105
  31821  H         55.4710   38.6930  186.6090 H     6274  MOL6274     0.2052
  31822  H         54.6480   37.5270  187.3270 H     6274  MOL6274     0.2052
  31823  O        180.6240  147.7100    7.4290 O.3   6275  MOL6275    -0.4105
  31824  H        180.2470  147.5060    8.3110 H     6275  MOL6275     0.2052
  31825  H        181.1120  148.5720    7.4930 H     6275  MOL6275     0.2052
  31826  O         45.1080  160.9800  167.7280 O.3   6276  MOL6276    -0.4105
  31827  H         44.7280  160.1900  168.1670 H     6276  MOL6276     0.2052
  31828  H         44.3650  161.4990  167.3240 H     6276  MOL6276     0.2052
  31829  O         99.9390    4.9460  172.2190 O.3   6277  MOL6277    -0.4105
  31830  H        100.2040    4.0070  172.1340 H     6277  MOL6277     0.2052
  31831  H        100.7150    5.4570  172.5700 H     6277  MOL6277     0.2052
  31832  O        184.3960   37.1890  270.4460 O.3   6278  MOL6278    -0.4105
  31833  H        184.1770   37.2910  271.3960 H     6278  MOL6278     0.2052
  31834  H        184.7350   36.2680  270.3030 H     6278  MOL6278     0.2052
  31835  O         71.4890   27.8480  201.6750 O.3   6279  MOL6279    -0.4105
  31836  H         72.2680   28.3820  201.4130 H     6279  MOL6279     0.2052
  31837  H         71.5320   26.9800  201.1950 H     6279  MOL6279     0.2052
  31838  O         92.3290   14.8750   95.6580 O.3   6280  MOL6280    -0.4105
  31839  H         91.6530   14.1990   95.8740 H     6280  MOL6280     0.2052
  31840  H         93.1550   14.4070   95.3700 H     6280  MOL6280     0.2052
  31841  O         47.3120  195.6350  256.3530 O.3   6281  MOL6281    -0.4105
  31842  H         47.4090  195.7730  255.3880 H     6281  MOL6281     0.2052
  31843  H         46.4000  195.9230  256.6180 H     6281  MOL6281     0.2052
  31844  O         42.7320   69.3040  129.4410 O.3   6282  MOL6282    -0.4105
  31845  H         42.3490   69.5270  130.3150 H     6282  MOL6282     0.2052
  31846  H         42.1330   68.6490  128.9970 H     6282  MOL6282     0.2052
  31847  O        143.6310   32.4110  100.1200 O.3   6283  MOL6283    -0.4105
  31848  H        143.8250   33.2460  100.5950 H     6283  MOL6283     0.2052
  31849  H        144.4770   32.0770   99.7230 H     6283  MOL6283     0.2052
  31850  O        196.8210   32.0580  283.7640 O.3   6284  MOL6284    -0.4105
  31851  H        197.1630   32.9750  283.8250 H     6284  MOL6284     0.2052
  31852  H        197.5930   31.4360  283.7920 H     6284  MOL6284     0.2052
  31853  O        178.4690  167.7970  221.9950 O.3   6285  MOL6285    -0.4105
  31854  H        178.5110  168.7650  221.8450 H     6285  MOL6285     0.2052
  31855  H        179.3740  167.4830  222.2520 H     6285  MOL6285     0.2052
  31856  O        188.0260   14.2950  155.8810 O.3   6286  MOL6286    -0.4105
  31857  H        187.8810   13.4860  155.3470 H     6286  MOL6286     0.2052
  31858  H        187.2730   14.3840  156.5210 H     6286  MOL6286     0.2052
  31859  O          5.8290  121.1940  235.4360 O.3   6287  MOL6287    -0.4105
  31860  H          6.4130  120.7330  234.7990 H     6287  MOL6287     0.2052
  31861  H          4.9290  120.7790  235.3890 H     6287  MOL6287     0.2052
  31862  O        165.9060  137.2300   11.9480 O.3   6288  MOL6288    -0.4105
  31863  H        164.9720  136.9340   11.9100 H     6288  MOL6288     0.2052
  31864  H        166.4790  136.4340   12.0970 H     6288  MOL6288     0.2052
  31865  O        161.7440   25.0730  180.1560 O.3   6289  MOL6289    -0.4105
  31866  H        161.2010   24.4000  180.6170 H     6289  MOL6289     0.2052
  31867  H        161.2380   25.9260  180.1450 H     6289  MOL6289     0.2052
  31868  O         56.6730   39.2510  115.5130 O.3   6290  MOL6290    -0.4105
  31869  H         57.6090   39.3660  115.2480 H     6290  MOL6290     0.2052
  31870  H         56.2940   38.4940  114.9960 H     6290  MOL6290     0.2052
  31871  O        170.8330  196.4020   25.5890 O.3   6291  MOL6291    -0.4105
  31872  H        171.1570  195.6070   25.1180 H     6291  MOL6291     0.2052
  31873  H        169.9010  196.2300   25.8830 H     6291  MOL6291     0.2052
  31874  O         33.3750    6.4510   44.8530 O.3   6292  MOL6292    -0.4105
  31875  H         32.9190    7.0310   44.2080 H     6292  MOL6292     0.2052
  31876  H         34.0400    5.9030   44.3610 H     6292  MOL6292     0.2052
  31877  O        155.9200  158.3470  216.9910 O.3   6293  MOL6293    -0.4105
  31878  H        156.8810  158.5210  217.0690 H     6293  MOL6293     0.2052
  31879  H        155.7750  157.3670  217.0510 H     6293  MOL6293     0.2052
  31880  O         40.0530  185.6050  233.1620 O.3   6294  MOL6294    -0.4105
  31881  H         39.7830  186.5180  233.3960 H     6294  MOL6294     0.2052
  31882  H         39.2330  185.0570  233.0540 H     6294  MOL6294     0.2052
  31883  O         26.4550   30.3740  146.5510 O.3   6295  MOL6295    -0.4105
  31884  H         25.9290   29.5990  146.8380 H     6295  MOL6295     0.2052
  31885  H         26.2400   31.1350  147.1510 H     6295  MOL6295     0.2052
  31886  O          8.9630   45.0450  252.8560 O.3   6296  MOL6296    -0.4105
  31887  H          8.8960   44.6460  251.9630 H     6296  MOL6296     0.2052
  31888  H          8.1550   44.7890  253.3710 H     6296  MOL6296     0.2052
  31889  O         93.2160  167.4640   57.0290 O.3   6297  MOL6297    -0.4105
  31890  H         93.0390  166.6270   56.5510 H     6297  MOL6297     0.2052
  31891  H         94.1990  167.5850   57.0900 H     6297  MOL6297     0.2052
  31892  O        113.8390  122.0660  225.7310 O.3   6298  MOL6298    -0.4105
  31893  H        112.8660  122.1710  225.6910 H     6298  MOL6298     0.2052
  31894  H        114.1910  122.6890  226.4190 H     6298  MOL6298     0.2052
  31895  O        122.5740   69.4290  293.8040 O.3   6299  MOL6299    -0.4105
  31896  H        121.6180   69.2870  293.6400 H     6299  MOL6299     0.2052
  31897  H        122.6920   70.3370  294.1870 H     6299  MOL6299     0.2052
  31898  O        162.4150  157.1750  258.1820 O.3   6300  MOL6300    -0.4105
  31899  H        161.7380  157.8820  258.1450 H     6300  MOL6300     0.2052
  31900  H        163.2410  157.5120  257.7470 H     6300  MOL6300     0.2052
  31901  O        190.6220  149.9140  281.8340 O.3   6301  MOL6301    -0.4105
  31902  H        191.4860  149.4550  281.8860 H     6301  MOL6301     0.2052
  31903  H        189.9070  149.2270  281.7920 H     6301  MOL6301     0.2052
  31904  O        146.6730  184.6020  119.4080 O.3   6302  MOL6302    -0.4105
  31905  H        146.4870  184.1000  118.5880 H     6302  MOL6302     0.2052
  31906  H        147.6230  184.4580  119.6530 H     6302  MOL6302     0.2052
  31907  O        152.5410   24.5870   83.0130 O.3   6303  MOL6303    -0.4105
  31908  H        153.0140   24.6390   82.1560 H     6303  MOL6303     0.2052
  31909  H        153.1330   24.1310   83.6670 H     6303  MOL6303     0.2052
  31910  O        148.8110  188.2130   51.0440 O.3   6304  MOL6304    -0.4105
  31911  H        148.9190  187.2420   51.1130 H     6304  MOL6304     0.2052
  31912  H        147.8650  188.4360   51.2420 H     6304  MOL6304     0.2052
  31913  O         80.4380  104.1810  220.6500 O.3   6305  MOL6305    -0.4105
  31914  H         79.8570  103.5940  221.1770 H     6305  MOL6305     0.2052
  31915  H         79.8650  104.7260  220.0500 H     6305  MOL6305     0.2052
  31916  O        112.1140   71.8560  262.6840 O.3   6306  MOL6306    -0.4105
  31917  H        111.9800   72.3160  261.8290 H     6306  MOL6306     0.2052
  31918  H        112.5570   72.4860  263.3100 H     6306  MOL6306     0.2052
  31919  O         68.2420  142.5740    0.1250 O.3   6307  MOL6307    -0.4105
  31920  H         69.0940  143.0590    0.1350 H     6307  MOL6307     0.2052
  31921  H         67.5060  143.2390    0.1170 H     6307  MOL6307     0.2052
  31922  O        140.2170  172.8900  222.3590 O.3   6308  MOL6308    -0.4105
  31923  H        139.3030  173.2030  222.5240 H     6308  MOL6308     0.2052
  31924  H        140.1740  171.9380  222.0840 H     6308  MOL6308     0.2052
  31925  O         97.6200   21.7120  135.1690 O.3   6309  MOL6309    -0.4105
  31926  H         97.1300   21.2700  134.4440 H     6309  MOL6309     0.2052
  31927  H         97.6600   22.6830  134.9700 H     6309  MOL6309     0.2052
  31928  O        166.3260  113.3910  110.8190 O.3   6310  MOL6310    -0.4105
  31929  H        167.1830  113.1430  110.4140 H     6310  MOL6310     0.2052
  31930  H        166.4580  114.2280  111.3360 H     6310  MOL6310     0.2052
  31931  O         23.4960   24.6330   76.4580 O.3   6311  MOL6311    -0.4105
  31932  H         23.2120   23.7900   76.8690 H     6311  MOL6311     0.2052
  31933  H         22.9560   25.3670   76.8510 H     6311  MOL6311     0.2052
  31934  O        111.8530   32.5680  145.0640 O.3   6312  MOL6312    -0.4105
  31935  H        112.5350   32.0020  144.6440 H     6312  MOL6312     0.2052
  31936  H        112.2310   32.9380  145.9040 H     6312  MOL6312     0.2052
  31937  O        150.1690  101.6750  291.6190 O.3   6313  MOL6313    -0.4105
  31938  H        150.7320  100.9930  291.1980 H     6313  MOL6313     0.2052
  31939  H        149.2200  101.4580  291.4250 H     6313  MOL6313     0.2052
  31940  O        121.7540  119.2490   76.6750 O.3   6314  MOL6314    -0.4105
  31941  H        121.6320  120.1990   76.8810 H     6314  MOL6314     0.2052
  31942  H        122.7240  119.0440   76.7170 H     6314  MOL6314     0.2052
  31943  O        102.5480  134.9600  263.5140 O.3   6315  MOL6315    -0.4105
  31944  H        102.6340  134.3020  264.2350 H     6315  MOL6315     0.2052
  31945  H        103.3820  135.4970  263.4840 H     6315  MOL6315     0.2052
  31946  O        161.7560   26.1160  194.4990 O.3   6316  MOL6316    -0.4105
  31947  H        160.9450   25.6300  194.7570 H     6316  MOL6316     0.2052
  31948  H        162.4620   25.4520  194.2880 H     6316  MOL6316     0.2052
  31949  O         35.1920   76.8750  185.2070 O.3   6317  MOL6317    -0.4105
  31950  H         34.3560   76.6880  184.7310 H     6317  MOL6317     0.2052
  31951  H         35.8260   76.1340  185.0240 H     6317  MOL6317     0.2052
  31952  O         31.2950   41.4610  200.4100 O.3   6318  MOL6318    -0.4105
  31953  H         31.5330   42.1860  201.0250 H     6318  MOL6318     0.2052
  31954  H         30.3210   41.2890  200.4930 H     6318  MOL6318     0.2052
  31955  O        140.5610   28.2160  167.1210 O.3   6319  MOL6319    -0.4105
  31956  H        140.6400   27.2590  167.3150 H     6319  MOL6319     0.2052
  31957  H        139.6040   28.4680  167.1850 H     6319  MOL6319     0.2052
  31958  O         37.4060  178.7270  115.5230 O.3   6320  MOL6320    -0.4105
  31959  H         36.4890  178.5500  115.2240 H     6320  MOL6320     0.2052
  31960  H         37.9240  179.0690  114.7480 H     6320  MOL6320     0.2052
  31961  O         51.4000   20.0590  111.1660 O.3   6321  MOL6321    -0.4105
  31962  H         52.1970   20.1100  111.7350 H     6321  MOL6321     0.2052
  31963  H         51.2290   20.9620  110.7910 H     6321  MOL6321     0.2052
  31964  O        153.7560    4.6360   40.4880 O.3   6322  MOL6322    -0.4105
  31965  H        153.5390    5.4250   39.9500 H     6322  MOL6322     0.2052
  31966  H        154.3430    4.9210   41.2360 H     6322  MOL6322     0.2052
  31967  O        163.9510   12.1890   60.0410 O.3   6323  MOL6323    -0.4105
  31968  H        163.1080   12.6710   59.9110 H     6323  MOL6323     0.2052
  31969  H        164.6900   12.8510   60.0350 H     6323  MOL6323     0.2052
  31970  O         31.4580   65.3150  171.3510 O.3   6324  MOL6324    -0.4105
  31971  H         32.4230   65.4470  171.2460 H     6324  MOL6324     0.2052
  31972  H         31.1180   64.8530  170.5410 H     6324  MOL6324     0.2052
  31973  O        121.8450  194.6600  117.7440 O.3   6325  MOL6325    -0.4105
  31974  H        121.5640  193.7220  117.7820 H     6325  MOL6325     0.2052
  31975  H        121.0330  195.2250  117.6740 H     6325  MOL6325     0.2052
  31976  O         82.2720  131.7340  243.6410 O.3   6326  MOL6326    -0.4105
  31977  H         82.9160  132.1270  244.2670 H     6326  MOL6326     0.2052
  31978  H         82.7520  131.5090  242.8020 H     6326  MOL6326     0.2052
  31979  O        193.4460   53.0830  162.9370 O.3   6327  MOL6327    -0.4105
  31980  H        194.1590   53.6650  163.2730 H     6327  MOL6327     0.2052
  31981  H        193.2790   53.3140  161.9860 H     6327  MOL6327     0.2052
  31982  O        116.1740   98.4010  172.9910 O.3   6328  MOL6328    -0.4105
  31983  H        115.2680   98.0570  172.8450 H     6328  MOL6328     0.2052
  31984  H        116.8180   97.6700  172.8040 H     6328  MOL6328     0.2052
  31985  O         22.4960  135.0420  206.2280 O.3   6329  MOL6329    -0.4105
  31986  H         23.1590  134.7270  205.5790 H     6329  MOL6329     0.2052
  31987  H         22.8850  135.8100  206.7210 H     6329  MOL6329     0.2052
  31988  O         23.0270  174.8980  113.1900 O.3   6330  MOL6330    -0.4105
  31989  H         23.5100  174.9960  114.0380 H     6330  MOL6330     0.2052
  31990  H         22.2000  175.4430  113.2390 H     6330  MOL6330     0.2052
  31991  O          5.4100  113.4060  207.5960 O.3   6331  MOL6331    -0.4105
  31992  H          6.2150  113.0150  207.9960 H     6331  MOL6331     0.2052
  31993  H          5.2590  114.2950  208.0100 H     6331  MOL6331     0.2052
  31994  O         21.2400   56.4180  207.5860 O.3   6332  MOL6332    -0.4105
  31995  H         20.5630   57.0360  207.2400 H     6332  MOL6332     0.2052
  31996  H         20.9320   56.0810  208.4670 H     6332  MOL6332     0.2052
  31997  O        153.3250  150.1900  188.8720 O.3   6333  MOL6333    -0.4105
  31998  H        152.3850  149.9120  188.8640 H     6333  MOL6333     0.2052
  31999  H        153.8900  149.3750  188.8940 H     6333  MOL6333     0.2052
  32000  O        102.5010   36.9600  114.6730 O.3   6334  MOL6334    -0.4105
  32001  H        101.9970   37.7190  114.3120 H     6334  MOL6334     0.2052
  32002  H        103.4550   37.0740  114.4230 H     6334  MOL6334     0.2052
  32003  O          1.8080  130.7040   78.3390 O.3   6335  MOL6335    -0.4105
  32004  H          1.4820  129.9340   77.8280 H     6335  MOL6335     0.2052
  32005  H          2.6900  130.4680   78.7280 H     6335  MOL6335     0.2052
  32006  O         32.9140  114.7290  276.8940 O.3   6336  MOL6336    -0.4105
  32007  H         33.7670  114.3930  276.5470 H     6336  MOL6336     0.2052
  32008  H         32.3180  113.9530  277.0570 H     6336  MOL6336     0.2052
  32009  O        195.8010  124.9370  121.9700 O.3   6337  MOL6337    -0.4105
  32010  H        196.6780  124.9550  122.4060 H     6337  MOL6337     0.2052
  32011  H        195.9030  125.2940  121.0500 H     6337  MOL6337     0.2052
  32012  O         84.0180  159.7590  232.9560 O.3   6338  MOL6338    -0.4105
  32013  H         83.6090  159.2040  232.2600 H     6338  MOL6338     0.2052
  32014  H         83.3640  160.4580  233.2200 H     6338  MOL6338     0.2052
  32015  O        158.6270   86.7820  188.9470 O.3   6339  MOL6339    -0.4105
  32016  H        159.2270   87.0330  189.6800 H     6339  MOL6339     0.2052
  32017  H        157.8670   87.4200  188.9370 H     6339  MOL6339     0.2052
  32018  O        198.1800   37.2170  215.3150 O.3   6340  MOL6340    -0.4105
  32019  H        197.8040   36.3920  214.9410 H     6340  MOL6340     0.2052
  32020  H        198.5460   37.0120  216.2140 H     6340  MOL6340     0.2052
  32021  O        190.8980  142.0720  252.6240 O.3   6341  MOL6341    -0.4105
  32022  H        191.5060  141.3030  252.6580 H     6341  MOL6341     0.2052
  32023  H        191.1890  142.6640  251.8820 H     6341  MOL6341     0.2052
  32024  O        113.6230  163.7680  209.9130 O.3   6342  MOL6342    -0.4105
  32025  H        113.1410  163.1680  210.5200 H     6342  MOL6342     0.2052
  32026  H        113.0740  163.8890  209.0950 H     6342  MOL6342     0.2052
  32027  O        179.0220   32.9680  217.2010 O.3   6343  MOL6343    -0.4105
  32028  H        179.2350   32.3170  217.9020 H     6343  MOL6343     0.2052
  32029  H        179.8420   33.4880  217.0010 H     6343  MOL6343     0.2052
  32030  O         48.3230  146.4990   39.7040 O.3   6344  MOL6344    -0.4105
  32031  H         47.3590  146.6060   39.5640 H     6344  MOL6344     0.2052
  32032  H         48.5070  145.5390   39.8710 H     6344  MOL6344     0.2052
  32033  O        161.2690  131.9010  244.1160 O.3   6345  MOL6345    -0.4105
  32034  H        160.3480  131.6600  244.3470 H     6345  MOL6345     0.2052
  32035  H        161.2540  132.4040  243.2610 H     6345  MOL6345     0.2052
  32036  O        173.6660   74.8620   25.3840 O.3   6346  MOL6346    -0.4105
  32037  H        174.2590   74.0950   25.2420 H     6346  MOL6346     0.2052
  32038  H        172.7500   74.6020   25.1040 H     6346  MOL6346     0.2052
  32039  O        146.7870    7.1470  251.0860 O.3   6347  MOL6347    -0.4105
  32040  H        146.5020    8.0840  251.1320 H     6347  MOL6347     0.2052
  32041  H        145.9830    6.5730  251.1830 H     6347  MOL6347     0.2052
  32042  O         66.2660   83.1330   69.4040 O.3   6348  MOL6348    -0.4105
  32043  H         65.3460   82.9290   69.6750 H     6348  MOL6348     0.2052
  32044  H         66.5430   83.9730   69.8530 H     6348  MOL6348     0.2052
  32045  O        129.3890   24.4120  205.6180 O.3   6349  MOL6349    -0.4105
  32046  H        129.5580   24.5450  206.5740 H     6349  MOL6349     0.2052
  32047  H        129.3840   23.4360  205.4370 H     6349  MOL6349     0.2052
  32048  O        193.0880  188.4170  234.6500 O.3   6350  MOL6350    -0.4105
  32049  H        192.3240  188.8330  235.1000 H     6350  MOL6350     0.2052
  32050  H        192.9610  187.4330  234.6670 H     6350  MOL6350     0.2052
  32051  O        190.2270  169.3550  219.7740 O.3   6351  MOL6351    -0.4105
  32052  H        190.3470  170.0210  220.4830 H     6351  MOL6351     0.2052
  32053  H        189.4520  168.7830  220.0140 H     6351  MOL6351     0.2052
  32054  O         51.3820  187.5710  167.4920 O.3   6352  MOL6352    -0.4105
  32055  H         51.4290  186.6140  167.2870 H     6352  MOL6352     0.2052
  32056  H         50.4380  187.8630  167.3960 H     6352  MOL6352     0.2052
  32057  O        101.4930  130.9310  191.4510 O.3   6353  MOL6353    -0.4105
  32058  H        101.3400  131.2050  192.3790 H     6353  MOL6353     0.2052
  32059  H        102.4390  130.6440  191.3630 H     6353  MOL6353     0.2052
  32060  O        162.6010  143.7050  202.5470 O.3   6354  MOL6354    -0.4105
  32061  H        162.7130  142.7310  202.5420 H     6354  MOL6354     0.2052
  32062  H        161.6300  143.9060  202.5080 H     6354  MOL6354     0.2052
  32063  O         24.6480   23.2600  161.0930 O.3   6355  MOL6355    -0.4105
  32064  H         25.2870   22.5350  160.9290 H     6355  MOL6355     0.2052
  32065  H         25.1040   23.9620  161.6260 H     6355  MOL6355     0.2052
  32066  O          9.9220  198.6910  238.4370 O.3   6356  MOL6356    -0.4105
  32067  H         10.7060  198.8040  239.0140 H     6356  MOL6356     0.2052
  32068  H         10.0200  199.3000  237.6590 H     6356  MOL6356     0.2052
  32069  O        162.5450   70.6830  246.1150 O.3   6357  MOL6357    -0.4105
  32070  H        162.5870   70.2210  246.9790 H     6357  MOL6357     0.2052
  32071  H        163.4650   70.7420  245.7500 H     6357  MOL6357     0.2052
  32072  O        148.2190  175.1110   18.8120 O.3   6358  MOL6358    -0.4105
  32073  H        148.9640  175.0310   19.4440 H     6358  MOL6358     0.2052
  32074  H        148.0570  174.2190   18.4080 H     6358  MOL6358     0.2052
  32075  O         95.4850  193.8510  156.8060 O.3   6359  MOL6359    -0.4105
  32076  H         94.6880  193.7690  156.2420 H     6359  MOL6359     0.2052
  32077  H         95.7070  192.9510  157.1620 H     6359  MOL6359     0.2052
  32078  O         43.3670  155.5200   62.3900 O.3   6360  MOL6360    -0.4105
  32079  H         43.2200  154.6420   61.9790 H     6360  MOL6360     0.2052
  32080  H         44.2970  155.8030   62.1920 H     6360  MOL6360     0.2052
  32081  O        138.2370  173.7610   33.2050 O.3   6361  MOL6361    -0.4105
  32082  H        138.2300  174.3950   33.9520 H     6361  MOL6361     0.2052
  32083  H        139.1280  173.8040   32.7710 H     6361  MOL6361     0.2052
  32084  O        172.8780   51.2260    1.5880 O.3   6362  MOL6362    -0.4105
  32085  H        172.2800   51.6660    0.9470 H     6362  MOL6362     0.2052
  32086  H        173.7500   51.0700    1.1410 H     6362  MOL6362     0.2052
  32087  O          0.0680   49.6940   58.5220 O.3   6363  MOL6363    -0.4105
  32088  H          0.9990   49.4810   58.3030 H     6363  MOL6363     0.2052
  32089  H          0.0040   49.8310   59.5030 H     6363  MOL6363     0.2052
  32090  O         59.3130  157.9420  131.0660 O.3   6364  MOL6364    -0.4105
  32091  H         58.7730  158.7490  130.9350 H     6364  MOL6364     0.2052
  32092  H         58.7090  157.1550  131.0270 H     6364  MOL6364     0.2052
  32093  O        105.9470   76.7230  290.3110 O.3   6365  MOL6365    -0.4105
  32094  H        106.8880   76.4870  290.4470 H     6365  MOL6365     0.2052
  32095  H        105.5880   77.0750  291.1670 H     6365  MOL6365     0.2052
  32096  O        173.9570   86.9830  191.1910 O.3   6366  MOL6366    -0.4105
  32097  H        173.9660   86.1650  191.7300 H     6366  MOL6366     0.2052
  32098  H        174.8250   87.4480  191.3170 H     6366  MOL6366     0.2052
  32099  O        151.2350   14.5990  139.0680 O.3   6367  MOL6367    -0.4105
  32100  H        152.1850   14.3760  139.1600 H     6367  MOL6367     0.2052
  32101  H        151.0610   14.8260  138.1180 H     6367  MOL6367     0.2052
  32102  O         54.7810  167.1550   70.2660 O.3   6368  MOL6368    -0.4105
  32103  H         55.3540  167.8680   69.9160 H     6368  MOL6368     0.2052
  32104  H         55.3550  166.3740   70.4830 H     6368  MOL6368     0.2052
  32105  O         59.6780  134.7780  180.0880 O.3   6369  MOL6369    -0.4105
  32106  H         59.6830  134.5560  179.1330 H     6369  MOL6369     0.2052
  32107  H         58.8500  135.2890  180.2830 H     6369  MOL6369     0.2052
  32108  O        123.8010   41.9360   99.0780 O.3   6370  MOL6370    -0.4105
  32109  H        123.3200   42.0110   99.9290 H     6370  MOL6370     0.2052
  32110  H        123.2150   41.4640   98.4310 H     6370  MOL6370     0.2052
  32111  O        193.4480  151.0950  209.5180 O.3   6371  MOL6371    -0.4105
  32112  H        193.9600  151.8930  209.7670 H     6371  MOL6371     0.2052
  32113  H        192.4870  151.3390  209.4890 H     6371  MOL6371     0.2052
  32114  O         44.8200   28.4380  233.8510 O.3   6372  MOL6372    -0.4105
  32115  H         44.4350   27.6730  234.3290 H     6372  MOL6372     0.2052
  32116  H         44.2220   28.6630  233.0920 H     6372  MOL6372     0.2052
  32117  O        184.9740  121.2080    7.8940 O.3   6373  MOL6373    -0.4105
  32118  H        184.2380  121.1300    7.2510 H     6373  MOL6373     0.2052
  32119  H        184.8990  122.0890    8.3450 H     6373  MOL6373     0.2052
  32120  O         21.5130   55.1830  230.1290 O.3   6374  MOL6374    -0.4105
  32121  H         22.1060   55.6080  229.4750 H     6374  MOL6374     0.2052
  32122  H         20.8770   55.8680  230.4620 H     6374  MOL6374     0.2052
  32123  O        165.5330    5.5860  103.9190 O.3   6375  MOL6375    -0.4105
  32124  H        164.9440    6.2520  104.3320 H     6375  MOL6375     0.2052
  32125  H        165.9950    5.0880  104.6430 H     6375  MOL6375     0.2052
  32126  O        119.6300   80.0980  215.3930 O.3   6376  MOL6376    -0.4105
  32127  H        120.1150   80.7980  214.9070 H     6376  MOL6376     0.2052
  32128  H        119.6450   79.2720  214.8440 H     6376  MOL6376     0.2052
  32129  O         37.8440   23.3780  158.6560 O.3   6377  MOL6377    -0.4105
  32130  H         38.7630   23.7130  158.7200 H     6377  MOL6377     0.2052
  32131  H         37.8660   22.3910  158.7610 H     6377  MOL6377     0.2052
  32132  O        198.0760   42.6910  269.4790 O.3   6378  MOL6378    -0.4105
  32133  H        197.9560   42.8350  268.5170 H     6378  MOL6378     0.2052
  32134  H        197.8150   43.5230  269.9520 H     6378  MOL6378     0.2052
  32135  O         93.0000  105.7360  165.7620 O.3   6379  MOL6379    -0.4105
  32136  H         93.6300  106.3780  166.1510 H     6379  MOL6379     0.2052
  32137  H         92.1170  106.1800  165.6760 H     6379  MOL6379     0.2052
  32138  O        106.2770  190.8070  192.6810 O.3   6380  MOL6380    -0.4105
  32139  H        105.6870  191.5610  192.8920 H     6380  MOL6380     0.2052
  32140  H        107.1450  191.1710  192.3670 H     6380  MOL6380     0.2052
  32141  O         25.0010  145.0540  178.5470 O.3   6381  MOL6381    -0.4105
  32142  H         24.5030  144.2100  178.5220 H     6381  MOL6381     0.2052
  32143  H         24.3480  145.7990  178.5850 H     6381  MOL6381     0.2052
  32144  O         29.8840   18.9330  111.8300 O.3   6382  MOL6382    -0.4105
  32145  H         30.3050   19.2750  111.0140 H     6382  MOL6382     0.2052
  32146  H         30.5910   18.5270  112.3970 H     6382  MOL6382     0.2052
  32147  O         12.4560  186.4110  280.4320 O.3   6383  MOL6383    -0.4105
  32148  H         12.4030  185.7160  281.1200 H     6383  MOL6383     0.2052
  32149  H         12.9390  186.0380  279.6500 H     6383  MOL6383     0.2052
  32150  O         91.9820   77.1840  178.5070 O.3   6384  MOL6384    -0.4105
  32151  H         91.1950   77.2090  179.0900 H     6384  MOL6384     0.2052
  32152  H         91.6700   77.1030  177.5680 H     6384  MOL6384     0.2052
  32153  O        111.1940   42.4420  195.7860 O.3   6385  MOL6385    -0.4105
  32154  H        110.3620   42.9290  195.9640 H     6385  MOL6385     0.2052
  32155  H        111.9370   43.0990  195.7500 H     6385  MOL6385     0.2052
  32156  O        118.1260  189.0820  201.2550 O.3   6386  MOL6386    -0.4105
  32157  H        118.9270  188.7120  201.6810 H     6386  MOL6386     0.2052
  32158  H        117.3860  189.0640  201.9160 H     6386  MOL6386     0.2052
  32159  O        133.5370  126.9080  287.2360 O.3   6387  MOL6387    -0.4105
  32160  H        134.0540  127.6930  287.5130 H     6387  MOL6387     0.2052
  32161  H        133.6310  126.8050  286.2530 H     6387  MOL6387     0.2052
  32162  O        180.8220  118.4640   47.9150 O.3   6388  MOL6388    -0.4105
  32163  H        180.1470  118.0060   47.3710 H     6388  MOL6388     0.2052
  32164  H        181.0400  117.8850   48.6910 H     6388  MOL6388     0.2052
  32165  O        110.6150   39.6240  161.6910 O.3   6389  MOL6389    -0.4105
  32166  H        111.4300   39.0830  161.6360 H     6389  MOL6389     0.2052
  32167  H        109.8560   39.0200  161.8990 H     6389  MOL6389     0.2052
  32168  O        138.3760    9.6190  263.2980 O.3   6390  MOL6390    -0.4105
  32169  H        138.5650    8.6700  263.1430 H     6390  MOL6390     0.2052
  32170  H        137.4170    9.7810  263.1010 H     6390  MOL6390     0.2052
  32171  O        142.4790   76.9760  231.4810 O.3   6391  MOL6391    -0.4105
  32172  H        142.2760   77.9060  231.2480 H     6391  MOL6391     0.2052
  32173  H        143.3800   76.9500  231.8960 H     6391  MOL6391     0.2052
  32174  O        144.4010  194.8630   54.2050 O.3   6392  MOL6392    -0.4105
  32175  H        143.8570  194.0670   54.0270 H     6392  MOL6392     0.2052
  32176  H        145.1860  194.8440   53.5990 H     6392  MOL6392     0.2052
  32177  O         53.5070  108.7810  264.5920 O.3   6393  MOL6393    -0.4105
  32178  H         53.0730  108.6160  265.4550 H     6393  MOL6393     0.2052
  32179  H         53.1740  108.1080  263.9430 H     6393  MOL6393     0.2052
  32180  O        159.9810  176.3460  206.6150 O.3   6394  MOL6394    -0.4105
  32181  H        159.8380  175.4280  206.3010 H     6394  MOL6394     0.2052
  32182  H        159.1440  176.8580  206.4690 H     6394  MOL6394     0.2052
  32183  O         72.6790   17.2350   29.1540 O.3   6395  MOL6395    -0.4105
  32184  H         71.7690   16.8720   29.1300 H     6395  MOL6395     0.2052
  32185  H         72.6170   18.2230   29.2250 H     6395  MOL6395     0.2052
  32186  O          3.7900  176.5460   80.2210 O.3   6396  MOL6396    -0.4105
  32187  H          4.6430  176.8850   79.8780 H     6396  MOL6396     0.2052
  32188  H          3.0700  177.1640   79.9300 H     6396  MOL6396     0.2052
  32189  O         62.5470  197.6030  284.2160 O.3   6397  MOL6397    -0.4105
  32190  H         62.1980  197.0010  283.5250 H     6397  MOL6397     0.2052
  32191  H         61.9340  197.5700  284.9950 H     6397  MOL6397     0.2052
  32192  O         11.2500   53.7530  109.1360 O.3   6398  MOL6398    -0.4105
  32193  H         11.3360   54.6110  109.6030 H     6398  MOL6398     0.2052
  32194  H         10.2900   53.6020  108.9390 H     6398  MOL6398     0.2052
  32195  O         88.1940  117.3720   50.7030 O.3   6399  MOL6399    -0.4105
  32196  H         89.0140  117.8780   50.8830 H     6399  MOL6399     0.2052
  32197  H         87.9040  117.5700   49.7750 H     6399  MOL6399     0.2052
  32198  O        146.6730  126.0090   46.0120 O.3   6400  MOL6400    -0.4105
  32199  H        146.6480  126.9590   46.2490 H     6400  MOL6400     0.2052
  32200  H        147.4000  125.5780   46.5320 H     6400  MOL6400     0.2052
  32201  O        107.1160   18.5400  239.4690 O.3   6401  MOL6401    -0.4105
  32202  H        107.1830   18.4460  240.4420 H     6401  MOL6401     0.2052
  32203  H        106.8690   19.4790  239.2640 H     6401  MOL6401     0.2052
  32204  O         26.7110   99.5170  159.8490 O.3   6402  MOL6402    -0.4105
  32205  H         26.3990   98.5880  159.8160 H     6402  MOL6402     0.2052
  32206  H         25.9240  100.1120  159.7460 H     6402  MOL6402     0.2052
  32207  O         10.0100  148.1400  166.2200 O.3   6403  MOL6403    -0.4105
  32208  H         10.9440  147.9290  166.0120 H     6403  MOL6403     0.2052
  32209  H          9.4560  147.9120  165.4290 H     6403  MOL6403     0.2052
  32210  O        113.7640   58.7400   53.5350 O.3   6404  MOL6404    -0.4105
  32211  H        112.8760   59.1550   53.5340 H     6404  MOL6404     0.2052
  32212  H        114.4450   59.4620   53.5410 H     6404  MOL6404     0.2052
  32213  O         37.6010  196.0390  276.1100 O.3   6405  MOL6405    -0.4105
  32214  H         37.6960  195.3580  275.4120 H     6405  MOL6405     0.2052
  32215  H         37.4670  196.9180  275.6700 H     6405  MOL6405     0.2052
  32216  O        190.3580   60.1740   97.1770 O.3   6406  MOL6406    -0.4105
  32217  H        191.1980   59.6690   97.1600 H     6406  MOL6406     0.2052
  32218  H        189.6070   59.5270   97.2110 H     6406  MOL6406     0.2052
  32219  O        113.8360   59.4550  183.5800 O.3   6407  MOL6407    -0.4105
  32220  H        113.5580   58.8820  182.8360 H     6407  MOL6407     0.2052
  32221  H        114.2970   60.2490  183.2050 H     6407  MOL6407     0.2052
  32222  O        172.1450  175.5460   98.4590 O.3   6408  MOL6408    -0.4105
  32223  H        171.3520  175.8040   98.9740 H     6408  MOL6408     0.2052
  32224  H        172.1090  174.5670   98.3040 H     6408  MOL6408     0.2052
  32225  O         85.6190  142.0930  166.8080 O.3   6409  MOL6409    -0.4105
  32226  H         86.4930  141.8180  166.4590 H     6409  MOL6409     0.2052
  32227  H         84.9250  141.8310  166.1480 H     6409  MOL6409     0.2052
  32228  O         35.1940  174.8990  289.0780 O.3   6410  MOL6410    -0.4105
  32229  H         34.4480  175.2830  289.5850 H     6410  MOL6410     0.2052
  32230  H         35.5760  175.6100  288.5010 H     6410  MOL6410     0.2052
  32231  O         94.3410   95.4200  211.1390 O.3   6411  MOL6411    -0.4105
  32232  H         94.5840   95.6400  210.2150 H     6411  MOL6411     0.2052
  32233  H         95.0140   94.7840  211.4950 H     6411  MOL6411     0.2052
  32234  O         43.7520  172.5470   76.2480 O.3   6412  MOL6412    -0.4105
  32235  H         44.4440  172.3110   76.9010 H     6412  MOL6412     0.2052
  32236  H         43.6520  173.5350   76.2460 H     6412  MOL6412     0.2052
  32237  O         31.2940  189.4690   41.5600 O.3   6413  MOL6413    -0.4105
  32238  H         32.2580  189.2930   41.5480 H     6413  MOL6413     0.2052
  32239  H         31.1590  190.4490   41.6370 H     6413  MOL6413     0.2052
  32240  O         10.4220  140.3410  129.4420 O.3   6414  MOL6414    -0.4105
  32241  H         10.9420  141.1580  129.2960 H     6414  MOL6414     0.2052
  32242  H          9.4700  140.5950  129.5580 H     6414  MOL6414     0.2052
  32243  O         47.0840    9.1820  159.0690 O.3   6415  MOL6415    -0.4105
  32244  H         46.7980    8.8140  158.2060 H     6415  MOL6415     0.2052
  32245  H         47.6420    8.5020  159.5270 H     6415  MOL6415     0.2052
  32246  O        148.0250  160.9320  105.7810 O.3   6416  MOL6416    -0.4105
  32247  H        147.4960  160.1070  105.8150 H     6416  MOL6416     0.2052
  32248  H        147.4000  161.7020  105.8170 H     6416  MOL6416     0.2052
  32249  O        142.8480    3.0850  276.8140 O.3   6417  MOL6417    -0.4105
  32250  H        143.4260    3.5080  277.4830 H     6417  MOL6417     0.2052
  32251  H        143.4180    2.5400  276.2110 H     6417  MOL6417     0.2052
  32252  O         76.3270  183.0930  213.9770 O.3   6418  MOL6418    -0.4105
  32253  H         77.2910  182.9460  213.8790 H     6418  MOL6418     0.2052
  32254  H         76.1800  184.0480  214.1990 H     6418  MOL6418     0.2052
  32255  O         30.4230  176.4130  282.8060 O.3   6419  MOL6419    -0.4105
  32256  H         31.0690  175.7560  283.1380 H     6419  MOL6419     0.2052
  32257  H         30.4890  177.2270  283.3710 H     6419  MOL6419     0.2052
  32258  O        102.0990  129.4040  294.6160 O.3   6420  MOL6420    -0.4105
  32259  H        102.7240  129.1450  293.9070 H     6420  MOL6420     0.2052
  32260  H        101.2500  129.6920  294.1920 H     6420  MOL6420     0.2052
  32261  O        111.2230   58.0690  219.5570 O.3   6421  MOL6421    -0.4105
  32262  H        110.6840   58.8720  219.7200 H     6421  MOL6421     0.2052
  32263  H        111.0160   57.4070  220.2660 H     6421  MOL6421     0.2052
  32264  O          1.7030  104.5910  298.2860 O.3   6422  MOL6422    -0.4105
  32265  H          2.2960  105.3660  298.3780 H     6422  MOL6422     0.2052
  32266  H          0.7660  104.9180  298.2600 H     6422  MOL6422     0.2052
  32267  O        144.7700  173.9840  151.4040 O.3   6423  MOL6423    -0.4105
  32268  H        143.8670  173.6060  151.4470 H     6423  MOL6423     0.2052
  32269  H        145.4200  173.2350  151.3910 H     6423  MOL6423     0.2052
  32270  O         40.3290   82.3080   28.0450 O.3   6424  MOL6424    -0.4105
  32271  H         40.9180   82.9750   27.6320 H     6424  MOL6424     0.2052
  32272  H         40.3420   81.4920   27.4810 H     6424  MOL6424     0.2052
  32273  O         57.2080  158.8080  119.6560 O.3   6425  MOL6425    -0.4105
  32274  H         56.6770  158.3790  120.3590 H     6425  MOL6425     0.2052
  32275  H         57.5910  159.6460  120.0230 H     6425  MOL6425     0.2052
  32276  O         12.9490   30.8910   77.9030 O.3   6426  MOL6426    -0.4105
  32277  H         13.7220   30.2970   77.8000 H     6426  MOL6426     0.2052
  32278  H         13.2780   31.8270   77.9220 H     6426  MOL6426     0.2052
  32279  O         32.3940    5.8110  150.3290 O.3   6427  MOL6427    -0.4105
  32280  H         33.0050    5.0850  150.0820 H     6427  MOL6427     0.2052
  32281  H         32.8400    6.3700  151.0170 H     6427  MOL6427     0.2052
  32282  O         77.5060  124.3460  270.3740 O.3   6428  MOL6428    -0.4105
  32283  H         77.3740  125.0390  269.6940 H     6428  MOL6428     0.2052
  32284  H         78.1630  123.6890  270.0240 H     6428  MOL6428     0.2052
  32285  O        193.7510  185.3840   24.5630 O.3   6429  MOL6429    -0.4105
  32286  H        194.2520  184.5450   24.6390 H     6429  MOL6429     0.2052
  32287  H        193.2890  185.3910   23.6850 H     6429  MOL6429     0.2052
  32288  O        107.2820   25.2810  141.9550 O.3   6430  MOL6430    -0.4105
  32289  H        108.1780   24.9350  142.1500 H     6430  MOL6430     0.2052
  32290  H        107.3510   26.2610  141.8170 H     6430  MOL6430     0.2052
  32291  O         28.2070   19.5570  134.1030 O.3   6431  MOL6431    -0.4105
  32292  H         28.5550   20.3100  134.6250 H     6431  MOL6431     0.2052
  32293  H         28.9180   19.2560  133.4810 H     6431  MOL6431     0.2052
  32294  O         29.6770  152.0490   65.0480 O.3   6432  MOL6432    -0.4105
  32295  H         30.5680  152.4060   65.2450 H     6432  MOL6432     0.2052
  32296  H         29.0900  152.8060   64.7890 H     6432  MOL6432     0.2052
  32297  O        141.0780  189.8510   59.7480 O.3   6433  MOL6433    -0.4105
  32298  H        141.2950  190.7610   59.4570 H     6433  MOL6433     0.2052
  32299  H        140.1070  189.8130   59.9480 H     6433  MOL6433     0.2052
  32300  O        160.7740  128.6900  243.1560 O.3   6434  MOL6434    -0.4105
  32301  H        160.0380  128.1450  243.5060 H     6434  MOL6434     0.2052
  32302  H        160.4040  129.3130  242.4780 H     6434  MOL6434     0.2052
  32303  O         85.1840  141.0570   49.6080 O.3   6435  MOL6435    -0.4105
  32304  H         84.5580  140.3040   49.5620 H     6435  MOL6435     0.2052
  32305  H         85.9370  140.7980   50.2010 H     6435  MOL6435     0.2052
  32306  O         13.9650  144.8630  117.7880 O.3   6436  MOL6436    -0.4105
  32307  H         13.3220  144.1250  117.8400 H     6436  MOL6436     0.2052
  32308  H         13.4570  145.7120  117.7140 H     6436  MOL6436     0.2052
  32309  O        182.4480  181.7790   26.1580 O.3   6437  MOL6437    -0.4105
  32310  H        181.5980  181.2920   26.1860 H     6437  MOL6437     0.2052
  32311  H        182.3960  182.5330   26.8010 H     6437  MOL6437     0.2052
  32312  O          2.3850   91.2770   15.2360 O.3   6438  MOL6438    -0.4105
  32313  H          2.7680   91.7910   15.9780 H     6438  MOL6438     0.2052
  32314  H          1.4380   91.5500   15.1250 H     6438  MOL6438     0.2052
  32315  O         68.4900   51.0530  289.1190 O.3   6439  MOL6439    -0.4105
  32316  H         69.4270   51.3050  289.2590 H     6439  MOL6439     0.2052
  32317  H         68.4000   50.0810  289.2970 H     6439  MOL6439     0.2052
  32318  O        122.7180  169.4160   57.3690 O.3   6440  MOL6440    -0.4105
  32319  H        122.8400  170.3760   57.5200 H     6440  MOL6440     0.2052
  32320  H        123.5660  168.9550   57.6020 H     6440  MOL6440     0.2052
  32321  O        158.5250   63.1900  224.8750 O.3   6441  MOL6441    -0.4105
  32322  H        159.2710   62.9600  224.2830 H     6441  MOL6441     0.2052
  32323  H        158.5690   64.1630  225.0650 H     6441  MOL6441     0.2052
  32324  O         93.2720  134.8470  271.7420 O.3   6442  MOL6442    -0.4105
  32325  H         94.0020  135.4840  271.5980 H     6442  MOL6442     0.2052
  32326  H         93.6490  133.9290  271.7110 H     6442  MOL6442     0.2052
  32327  O         99.9990   89.7920   48.1510 O.3   6443  MOL6443    -0.4105
  32328  H         99.3860   89.0290   48.2100 H     6443  MOL6443     0.2052
  32329  H         99.4610   90.6110   47.9960 H     6443  MOL6443     0.2052
  32330  O        133.3120  149.8820   39.2350 O.3   6444  MOL6444    -0.4105
  32331  H        134.2000  149.7440   39.6270 H     6444  MOL6444     0.2052
  32332  H        132.7190  149.1490   39.5450 H     6444  MOL6444     0.2052
  32333  O        154.1570   59.9860   65.8180 O.3   6445  MOL6445    -0.4105
  32334  H        153.9370   60.3710   66.6920 H     6445  MOL6445     0.2052
  32335  H        154.5310   60.7050   65.2460 H     6445  MOL6445     0.2052
  32336  O         45.2460   39.0980  162.0690 O.3   6446  MOL6446    -0.4105
  32337  H         44.9100   38.3460  161.5380 H     6446  MOL6446     0.2052
  32338  H         46.2300   39.0080  162.1490 H     6446  MOL6446     0.2052
  32339  O         81.8840   51.4580  288.1130 O.3   6447  MOL6447    -0.4105
  32340  H         81.6720   50.8330  287.3880 H     6447  MOL6447     0.2052
  32341  H         81.6470   51.0260  288.9740 H     6447  MOL6447     0.2052
  32342  O        184.5010    3.1990  245.9560 O.3   6448  MOL6448    -0.4105
  32343  H        185.3110    3.5850  246.3500 H     6448  MOL6448     0.2052
  32344  H        183.8350    3.9250  245.8390 H     6448  MOL6448     0.2052
  32345  O         92.6280  156.6150  253.9720 O.3   6449  MOL6449    -0.4105
  32346  H         92.0970  157.1030  253.3090 H     6449  MOL6449     0.2052
  32347  H         92.4300  156.9920  254.8680 H     6449  MOL6449     0.2052
  32348  O         33.6970   14.4980  154.8660 O.3   6450  MOL6450    -0.4105
  32349  H         34.2970   14.9760  155.4750 H     6450  MOL6450     0.2052
  32350  H         32.7900   14.8910  154.9500 H     6450  MOL6450     0.2052
  32351  O        173.7020    8.1130   34.2070 O.3   6451  MOL6451    -0.4105
  32352  H        174.6370    8.3070   34.4270 H     6451  MOL6451     0.2052
  32353  H        173.5370    8.4020   33.2720 H     6451  MOL6451     0.2052
  32354  O        161.3030  197.9910   19.3610 O.3   6452  MOL6452    -0.4105
  32355  H        161.8180  198.1160   18.5360 H     6452  MOL6452     0.2052
  32356  H        161.1050  197.0230   19.4590 H     6452  MOL6452     0.2052
  32357  O        152.5750   66.2140  282.8570 O.3   6453  MOL6453    -0.4105
  32358  H        153.2240   66.7420  282.3480 H     6453  MOL6453     0.2052
  32359  H        153.0740   65.6270  283.4830 H     6453  MOL6453     0.2052
  32360  O          7.6640   91.6040  201.2920 O.3   6454  MOL6454    -0.4105
  32361  H          7.9080   90.6560  201.3260 H     6454  MOL6454     0.2052
  32362  H          7.6850   91.9640  202.2160 H     6454  MOL6454     0.2052
  32363  O        124.9770  114.6320  238.8350 O.3   6455  MOL6455    -0.4105
  32364  H        124.1870  115.0520  238.4360 H     6455  MOL6455     0.2052
  32365  H        125.2740  113.8980  238.2360 H     6455  MOL6455     0.2052
  32366  O        157.1640   75.9000  269.3900 O.3   6456  MOL6456    -0.4105
  32367  H        156.5260   76.4440  269.8970 H     6456  MOL6456     0.2052
  32368  H        157.3200   76.3410  268.5140 H     6456  MOL6456     0.2052
  32369  O         86.9920   21.5150   82.6640 O.3   6457  MOL6457    -0.4105
  32370  H         87.8640   21.9130   82.4590 H     6457  MOL6457     0.2052
  32371  H         86.3210   22.2440   82.7100 H     6457  MOL6457     0.2052
  32372  O         40.3860   96.2310  219.9060 O.3   6458  MOL6458    -0.4105
  32373  H         40.1810   96.9540  219.2770 H     6458  MOL6458     0.2052
  32374  H         40.8980   96.6150  220.6640 H     6458  MOL6458     0.2052
  32375  O        180.0940   62.4790  279.8190 O.3   6459  MOL6459    -0.4105
  32376  H        180.8670   62.0350  279.4120 H     6459  MOL6459     0.2052
  32377  H        179.2820   61.9540  279.5980 H     6459  MOL6459     0.2052
  32378  O         84.2070   71.5830   53.2910 O.3   6460  MOL6460    -0.4105
  32379  H         84.6110   70.9390   52.6730 H     6460  MOL6460     0.2052
  32380  H         83.2340   71.3950   53.3430 H     6460  MOL6460     0.2052
  32381  O         81.1530  173.4110  235.7070 O.3   6461  MOL6461    -0.4105
  32382  H         81.9520  173.9690  235.6000 H     6461  MOL6461     0.2052
  32383  H         80.3710  174.0090  235.8320 H     6461  MOL6461     0.2052
  32384  O         48.5890  107.3170  266.1540 O.3   6462  MOL6462    -0.4105
  32385  H         49.2170  107.9840  265.8050 H     6462  MOL6462     0.2052
  32386  H         49.1100  106.6170  266.6260 H     6462  MOL6462     0.2052
  32387  O         28.5950  119.4240   22.0990 O.3   6463  MOL6463    -0.4105
  32388  H         27.7240  119.6470   21.7080 H     6463  MOL6463     0.2052
  32389  H         28.5680  118.4780   22.3990 H     6463  MOL6463     0.2052
  32390  O         99.5550   48.6370  210.4550 O.3   6464  MOL6464    -0.4105
  32391  H        100.1490   49.0300  209.7810 H     6464  MOL6464     0.2052
  32392  H         98.6690   49.0770  210.3820 H     6464  MOL6464     0.2052
  32393  O        155.6400  171.1060  151.0380 O.3   6465  MOL6465    -0.4105
  32394  H        156.3790  171.6890  150.7660 H     6465  MOL6465     0.2052
  32395  H        154.8750  171.6790  151.3070 H     6465  MOL6465     0.2052
  32396  O         33.0670   37.9040  158.6750 O.3   6466  MOL6466    -0.4105
  32397  H         33.4430   38.8080  158.6450 H     6466  MOL6466     0.2052
  32398  H         33.7940   37.2580  158.4810 H     6466  MOL6466     0.2052
  32399  O        152.1490   19.7670  210.3730 O.3   6467  MOL6467    -0.4105
  32400  H        151.7670   20.6690  210.3360 H     6467  MOL6467     0.2052
  32401  H        152.3990   19.4980  209.4510 H     6467  MOL6467     0.2052
  32402  O         28.9360   14.4910  114.3320 O.3   6468  MOL6468    -0.4105
  32403  H         28.1940   14.4620  113.6930 H     6468  MOL6468     0.2052
  32404  H         29.7840   14.5610  113.8220 H     6468  MOL6468     0.2052
  32405  O         53.2150  120.2750  181.7370 O.3   6469  MOL6469    -0.4105
  32406  H         53.4550  119.3500  181.9540 H     6469  MOL6469     0.2052
  32407  H         53.6390  120.5120  180.8720 H     6469  MOL6469     0.2052
  32408  O         62.7860  113.8160   43.0420 O.3   6470  MOL6470    -0.4105
  32409  H         62.2190  114.5910   43.2350 H     6470  MOL6470     0.2052
  32410  H         63.5910  114.1330   42.5560 H     6470  MOL6470     0.2052
  32411  O         61.2910   17.6270  228.5000 O.3   6471  MOL6471    -0.4105
  32412  H         60.7910   17.0140  227.9220 H     6471  MOL6471     0.2052
  32413  H         61.4330   18.4750  228.0050 H     6471  MOL6471     0.2052
  32414  O         22.5570  106.1270   12.9050 O.3   6472  MOL6472    -0.4105
  32415  H         23.2170  105.9400   12.2050 H     6472  MOL6472     0.2052
  32416  H         22.0630  106.9500   12.6530 H     6472  MOL6472     0.2052
  32417  O         94.6570  199.2000  241.6420 O.3   6473  MOL6473    -0.4105
  32418  H         94.5790  198.3100  242.0450 H     6473  MOL6473     0.2052
  32419  H         95.5610  199.2820  241.2410 H     6473  MOL6473     0.2052
  32420  O         72.9880   24.7720  152.1280 O.3   6474  MOL6474    -0.4105
  32421  H         72.8830   23.8640  152.4830 H     6474  MOL6474     0.2052
  32422  H         73.7760   25.1870  152.5660 H     6474  MOL6474     0.2052
  32423  O         46.1860  141.1740  143.9330 O.3   6475  MOL6475    -0.4105
  32424  H         46.5270  140.7360  143.1250 H     6475  MOL6475     0.2052
  32425  H         45.5460  140.5570  144.3730 H     6475  MOL6475     0.2052
  32426  O        180.2270  147.8940   27.3090 O.3   6476  MOL6476    -0.4105
  32427  H        180.8940  147.3060   26.8970 H     6476  MOL6476     0.2052
  32428  H        180.3760  147.8920   28.2900 H     6476  MOL6476     0.2052
  32429  O        149.9140  160.0520  188.5120 O.3   6477  MOL6477    -0.4105
  32430  H        150.1540  159.6650  187.6440 H     6477  MOL6477     0.2052
  32431  H        150.3370  159.5050  189.2240 H     6477  MOL6477     0.2052
  32432  O         69.2120  170.4670  284.1540 O.3   6478  MOL6478    -0.4105
  32433  H         68.6440  170.3410  284.9430 H     6478  MOL6478     0.2052
  32434  H         69.9510  171.0830  284.4000 H     6478  MOL6478     0.2052
  32435  O        191.5590  106.3360   60.3740 O.3   6479  MOL6479    -0.4105
  32436  H        192.2760  106.3740   61.0410 H     6479  MOL6479     0.2052
  32437  H        191.7820  105.6250   59.7190 H     6479  MOL6479     0.2052
  32438  O         43.1920  124.3530   89.8550 O.3   6480  MOL6480    -0.4105
  32439  H         42.5660  125.1020   89.9430 H     6480  MOL6480     0.2052
  32440  H         42.9720  123.8620   89.0210 H     6480  MOL6480     0.2052
  32441  O        116.6130   94.2170  287.1470 O.3   6481  MOL6481    -0.4105
  32442  H        115.8090   93.7290  286.8730 H     6481  MOL6481     0.2052
  32443  H        116.5620   94.3760  288.1260 H     6481  MOL6481     0.2052
  32444  O        103.4240   94.3310   21.0840 O.3   6482  MOL6482    -0.4105
  32445  H        102.7950   94.1030   21.8000 H     6482  MOL6482     0.2052
  32446  H        104.1460   94.8900   21.4720 H     6482  MOL6482     0.2052
  32447  O         34.4630   83.4360   72.2780 O.3   6483  MOL6483    -0.4105
  32448  H         35.0800   82.6750   72.2330 H     6483  MOL6483     0.2052
  32449  H         34.9990   84.2640   72.3790 H     6483  MOL6483     0.2052
  32450  O        137.2940  113.2020   60.1780 O.3   6484  MOL6484    -0.4105
  32451  H        136.3410  113.3980   60.0640 H     6484  MOL6484     0.2052
  32452  H        137.6300  113.7310   60.9470 H     6484  MOL6484     0.2052
  32453  O        191.1780   76.9780  131.6400 O.3   6485  MOL6485    -0.4105
  32454  H        190.3580   77.4300  131.9290 H     6485  MOL6485     0.2052
  32455  H        190.9620   76.0270  131.4580 H     6485  MOL6485     0.2052
  32456  O         22.6790  144.3160  171.0390 O.3   6486  MOL6486    -0.4105
  32457  H         22.8800  145.2720  171.1180 H     6486  MOL6486     0.2052
  32458  H         23.1860  143.9550  170.2660 H     6486  MOL6486     0.2052
  32459  O        156.9760   50.0290  189.0020 O.3   6487  MOL6487    -0.4105
  32460  H        156.3620   49.7180  189.7010 H     6487  MOL6487     0.2052
  32461  H        156.4380   50.4390  188.2760 H     6487  MOL6487     0.2052
  32462  O         48.0730  136.8980   99.5940 O.3   6488  MOL6488    -0.4105
  32463  H         47.2680  136.8530   99.0370 H     6488  MOL6488     0.2052
  32464  H         48.1280  136.0640  100.1290 H     6488  MOL6488     0.2052
  32465  O         99.9210   91.8490  216.7670 O.3   6489  MOL6489    -0.4105
  32466  H         99.3330   92.2640  216.1010 H     6489  MOL6489     0.2052
  32467  H        100.8530   92.1310  216.5770 H     6489  MOL6489     0.2052
  32468  O        128.6080   41.2780  127.5020 O.3   6490  MOL6490    -0.4105
  32469  H        129.3870   41.5240  128.0450 H     6490  MOL6490     0.2052
  32470  H        128.0850   40.5990  128.0000 H     6490  MOL6490     0.2052
  32471  O         77.2980  167.7840  182.9390 O.3   6491  MOL6491    -0.4105
  32472  H         77.2090  167.5720  181.9860 H     6491  MOL6491     0.2052
  32473  H         76.4320  167.5920  183.3820 H     6491  MOL6491     0.2052
  32474  O        178.4360  199.7790  234.7000 O.3   6492  MOL6492    -0.4105
  32475  H        178.7070  198.9640  234.2290 H     6492  MOL6492     0.2052
  32476  H        179.0140  199.8820  235.5000 H     6492  MOL6492     0.2052
  32477  O         58.7310   89.4370  252.8710 O.3   6493  MOL6493    -0.4105
  32478  H         58.3970   88.5680  253.1790 H     6493  MOL6493     0.2052
  32479  H         59.7220   89.4290  252.9360 H     6493  MOL6493     0.2052
  32480  O        104.9200   87.9150  216.6840 O.3   6494  MOL6494    -0.4105
  32481  H        105.8580   87.8920  216.9650 H     6494  MOL6494     0.2052
  32482  H        104.6050   88.8550  216.7310 H     6494  MOL6494     0.2052
  32483  O         21.6780   96.0190  282.1500 O.3   6495  MOL6495    -0.4105
  32484  H         21.8220   96.8930  281.7310 H     6495  MOL6495     0.2052
  32485  H         21.8250   95.3170  281.4640 H     6495  MOL6495     0.2052
  32486  O         81.9550  150.7500  205.5720 O.3   6496  MOL6496    -0.4105
  32487  H         81.4310  151.5760  205.5190 H     6496  MOL6496     0.2052
  32488  H         82.9010  150.9920  205.7490 H     6496  MOL6496     0.2052
  32489  O        144.5070  158.1720  258.8440 O.3   6497  MOL6497    -0.4105
  32490  H        144.0450  158.4800  258.0370 H     6497  MOL6497     0.2052
  32491  H        144.3800  157.1910  258.9200 H     6497  MOL6497     0.2052
  32492  O        170.2780   37.1910  298.7820 O.3   6498  MOL6498    -0.4105
  32493  H        169.8740   37.6000  299.5760 H     6498  MOL6498     0.2052
  32494  H        170.7090   36.3410  299.0570 H     6498  MOL6498     0.2052
  32495  O        194.7380  137.3890  171.2550 O.3   6499  MOL6499    -0.4105
  32496  H        194.4560  136.4750  171.4690 H     6499  MOL6499     0.2052
  32497  H        194.7930  137.4740  170.2680 H     6499  MOL6499     0.2052
  32498  O         90.5840  126.3230   24.6290 O.3   6500  MOL6500    -0.4105
  32499  H         91.0790  125.4920   24.7850 H     6500  MOL6500     0.2052
  32500  H         91.2160  127.0830   24.7190 H     6500  MOL6500     0.2052
  32501  O         45.7520   50.9570   35.7190 O.3   6501  MOL6501    -0.4105
  32502  H         45.5130   51.8660   35.9940 H     6501  MOL6501     0.2052
  32503  H         46.7350   50.9230   35.5810 H     6501  MOL6501     0.2052
  32504  O         45.5480   98.1510  179.3440 O.3   6502  MOL6502    -0.4105
  32505  H         46.5080   97.9590  179.3230 H     6502  MOL6502     0.2052
  32506  H         45.0600   97.2910  179.4270 H     6502  MOL6502     0.2052
  32507  O         24.3120  156.5660   27.8550 O.3   6503  MOL6503    -0.4105
  32508  H         24.3580  155.9020   28.5730 H     6503  MOL6503     0.2052
  32509  H         23.4560  156.4380   27.3680 H     6503  MOL6503     0.2052
  32510  O        132.5790   86.3880  215.9910 O.3   6504  MOL6504    -0.4105
  32511  H        133.4100   85.9140  216.1980 H     6504  MOL6504     0.2052
  32512  H        131.8580   85.7160  215.8740 H     6504  MOL6504     0.2052
  32513  O        100.6500  107.9630  290.5160 O.3   6505  MOL6505    -0.4105
  32514  H        100.6190  108.9400  290.4480 H     6505  MOL6505     0.2052
  32515  H         99.7260  107.6320  290.6610 H     6505  MOL6505     0.2052
  32516  O        157.9570   91.6280   73.7860 O.3   6506  MOL6506    -0.4105
  32517  H        158.6140   91.2070   73.1920 H     6506  MOL6506     0.2052
  32518  H        157.0670   91.2350   73.5920 H     6506  MOL6506     0.2052
  32519  O         61.7010  106.7750  217.6850 O.3   6507  MOL6507    -0.4105
  32520  H         62.5520  106.2890  217.6970 H     6507  MOL6507     0.2052
  32521  H         61.0490  106.2750  218.2420 H     6507  MOL6507     0.2052
  32522  O         24.4520  125.2010  157.1510 O.3   6508  MOL6508    -0.4105
  32523  H         24.2970  124.7500  158.0070 H     6508  MOL6508     0.2052
  32524  H         23.5710  125.4430  156.7630 H     6508  MOL6508     0.2052
  32525  O         93.6890   76.5330  250.7790 O.3   6509  MOL6509    -0.4105
  32526  H         93.8080   77.0870  249.9790 H     6509  MOL6509     0.2052
  32527  H         93.6660   75.5820  250.4970 H     6509  MOL6509     0.2052
  32528  O         94.2840  190.7250   78.8880 O.3   6510  MOL6510    -0.4105
  32529  H         93.5330  190.2020   79.2380 H     6510  MOL6510     0.2052
  32530  H         94.0860  191.6870   79.0300 H     6510  MOL6510     0.2052
  32531  O        108.2450   54.0840  219.1750 O.3   6511  MOL6511    -0.4105
  32532  H        107.5640   54.7270  218.8860 H     6511  MOL6511     0.2052
  32533  H        107.8050   53.3990  219.7420 H     6511  MOL6511     0.2052
  32534  O        126.8320  173.9480    8.6380 O.3   6512  MOL6512    -0.4105
  32535  H        126.6560  174.6720    9.2750 H     6512  MOL6512     0.2052
  32536  H        126.8530  173.0920    9.1390 H     6512  MOL6512     0.2052
  32537  O        105.2020   20.7890   56.5250 O.3   6513  MOL6513    -0.4105
  32538  H        106.1250   20.5130   56.7000 H     6513  MOL6513     0.2052
  32539  H        105.2220   21.6830   56.0960 H     6513  MOL6513     0.2052
  32540  O        125.3930   48.1120  133.4150 O.3   6514  MOL6514    -0.4105
  32541  H        125.0800   48.4370  134.2850 H     6514  MOL6514     0.2052
  32542  H        126.1430   48.6910  133.1180 H     6514  MOL6514     0.2052
  32543  O         19.7110  180.9030    0.8280 O.3   6515  MOL6515    -0.4105
  32544  H         20.0550  181.5930    1.4340 H     6515  MOL6515     0.2052
  32545  H         20.4820  180.4830    0.3670 H     6515  MOL6515     0.2052
  32546  O         76.5900  112.0570   65.9600 O.3   6516  MOL6516    -0.4105
  32547  H         76.2590  112.0330   66.8820 H     6516  MOL6516     0.2052
  32548  H         77.4360  111.5400   65.9210 H     6516  MOL6516     0.2052
  32549  O        179.5450  100.2290  130.5680 O.3   6517  MOL6517    -0.4105
  32550  H        180.3170  100.7590  130.2810 H     6517  MOL6517     0.2052
  32551  H        179.0230  100.7660  131.2190 H     6517  MOL6517     0.2052
  32552  O        183.5770  154.0150    2.8990 O.3   6518  MOL6518    -0.4105
  32553  H        182.9900  154.8000    2.8820 H     6518  MOL6518     0.2052
  32554  H        184.4800  154.2970    2.5990 H     6518  MOL6518     0.2052
  32555  O        114.9080  175.2890  258.2980 O.3   6519  MOL6519    -0.4105
  32556  H        115.8340  175.5380  258.5020 H     6519  MOL6519     0.2052
  32557  H        114.3120  175.7720  258.9270 H     6519  MOL6519     0.2052
  32558  O          4.7170   19.7010  137.9500 O.3   6520  MOL6520    -0.4105
  32559  H          3.8220   19.6710  138.3500 H     6520  MOL6520     0.2052
  32560  H          5.1020   18.7870  137.9830 H     6520  MOL6520     0.2052
  32561  O        115.1290  198.0200  156.7910 O.3   6521  MOL6521    -0.4105
  32562  H        114.2790  198.5080  156.8240 H     6521  MOL6521     0.2052
  32563  H        114.9470  197.1020  156.4630 H     6521  MOL6521     0.2052
  32564  O         57.7660   98.5750  201.2390 O.3   6522  MOL6522    -0.4105
  32565  H         57.3180   99.4420  201.1480 H     6522  MOL6522     0.2052
  32566  H         57.0720   97.8660  201.2530 H     6522  MOL6522     0.2052
  32567  O        152.3770   35.9110  141.8710 O.3   6523  MOL6523    -0.4105
  32568  H        152.7130   35.4840  141.0560 H     6523  MOL6523     0.2052
  32569  H        151.4470   36.2150  141.7020 H     6523  MOL6523     0.2052
  32570  O        121.1920  189.9150  288.1070 O.3   6524  MOL6524    -0.4105
  32571  H        121.9640  190.5170  288.1320 H     6524  MOL6524     0.2052
  32572  H        121.1560  189.4200  288.9660 H     6524  MOL6524     0.2052
  32573  O        182.6520  100.5810  187.8460 O.3   6525  MOL6525    -0.4105
  32574  H        182.3620   99.8980  187.2060 H     6525  MOL6525     0.2052
  32575  H        183.6220  100.4570  188.0140 H     6525  MOL6525     0.2052
  32576  O        127.4060  175.6500  140.1070 O.3   6526  MOL6526    -0.4105
  32577  H        126.7800  175.1850  140.7010 H     6526  MOL6526     0.2052
  32578  H        127.1320  176.6020  140.0530 H     6526  MOL6526     0.2052
  32579  O        125.0340  120.3960  202.8330 O.3   6527  MOL6527    -0.4105
  32580  H        125.4970  119.9260  202.1090 H     6527  MOL6527     0.2052
  32581  H        125.4980  121.2600  202.9890 H     6527  MOL6527     0.2052
  32582  O         58.6460  103.4630  169.1050 O.3   6528  MOL6528    -0.4105
  32583  H         58.1680  102.6560  168.8210 H     6528  MOL6528     0.2052
  32584  H         58.6420  103.4920  170.0970 H     6528  MOL6528     0.2052
  32585  O         56.0620   26.9110   22.8650 O.3   6529  MOL6529    -0.4105
  32586  H         55.1220   27.1400   23.0160 H     6529  MOL6529     0.2052
  32587  H         56.5940   27.7490   22.8960 H     6529  MOL6529     0.2052
  32588  O        139.9550  158.9860  201.0360 O.3   6530  MOL6530    -0.4105
  32589  H        139.7780  158.0260  201.1260 H     6530  MOL6530     0.2052
  32590  H        140.8970  159.1530  201.2960 H     6530  MOL6530     0.2052
  32591  O         82.5480   17.1760  253.8800 O.3   6531  MOL6531    -0.4105
  32592  H         81.7530   17.3010  253.3200 H     6531  MOL6531     0.2052
  32593  H         82.7660   16.2080  253.8970 H     6531  MOL6531     0.2052
  32594  O        106.1560  164.3440  213.1720 O.3   6532  MOL6532    -0.4105
  32595  H        105.6280  164.7950  212.4800 H     6532  MOL6532     0.2052
  32596  H        106.5900  163.5510  212.7630 H     6532  MOL6532     0.2052
  32597  O        196.7890   45.2150  105.5300 O.3   6533  MOL6533    -0.4105
  32598  H        197.0450   46.0590  105.9570 H     6533  MOL6533     0.2052
  32599  H        195.9180   45.3500  105.0740 H     6533  MOL6533     0.2052
  32600  O         54.4780   89.3620   31.7620 O.3   6534  MOL6534    -0.4105
  32601  H         55.2120   89.4390   32.4080 H     6534  MOL6534     0.2052
  32602  H         54.4190   88.4160   31.4700 H     6534  MOL6534     0.2052
  32603  O         83.1180   94.4560  234.5880 O.3   6535  MOL6535    -0.4105
  32604  H         83.2230   94.0660  235.4810 H     6535  MOL6535     0.2052
  32605  H         83.6930   95.2630  234.5330 H     6535  MOL6535     0.2052
  32606  O        192.0940  116.3690  114.7940 O.3   6536  MOL6536    -0.4105
  32607  H        191.6200  116.4730  115.6450 H     6536  MOL6536     0.2052
  32608  H        192.4350  115.4390  114.7400 H     6536  MOL6536     0.2052
  32609  O         84.7990  127.3990   18.4350 O.3   6537  MOL6537    -0.4105
  32610  H         84.2610  128.2090   18.3130 H     6537  MOL6537     0.2052
  32611  H         84.9840  127.0120   17.5400 H     6537  MOL6537     0.2052
  32612  O         49.2280  100.5650  255.1850 O.3   6538  MOL6538    -0.4105
  32613  H         48.9040  100.1360  256.0040 H     6538  MOL6538     0.2052
  32614  H         49.7490   99.8960  254.6700 H     6538  MOL6538     0.2052
  32615  O        159.2340   97.0780  193.2470 O.3   6539  MOL6539    -0.4105
  32616  H        159.5040   98.0190  193.2110 H     6539  MOL6539     0.2052
  32617  H        158.2470   97.0340  193.1600 H     6539  MOL6539     0.2052
  32618  O        129.8760  174.8370  295.7230 O.3   6540  MOL6540    -0.4105
  32619  H        130.7750  175.0740  295.4140 H     6540  MOL6540     0.2052
  32620  H        129.2580  174.8840  294.9480 H     6540  MOL6540     0.2052
  32621  O        124.8370  125.7370  250.8650 O.3   6541  MOL6541    -0.4105
  32622  H        123.8980  125.5900  250.6260 H     6541  MOL6541     0.2052
  32623  H        125.2480  124.8570  251.0680 H     6541  MOL6541     0.2052
  32624  O         14.4000  176.1300  131.2650 O.3   6542  MOL6542    -0.4105
  32625  H         13.4760  175.8020  131.2530 H     6542  MOL6542     0.2052
  32626  H         14.3760  177.1220  131.2830 H     6542  MOL6542     0.2052
  32627  O        167.3510  130.3350  181.9180 O.3   6543  MOL6543    -0.4105
  32628  H        167.6940  129.7870  182.6550 H     6543  MOL6543     0.2052
  32629  H        166.4450  130.0050  181.6830 H     6543  MOL6543     0.2052
  32630  O        188.5590  161.5370  132.4990 O.3   6544  MOL6544    -0.4105
  32631  H        187.9620  162.3100  132.4140 H     6544  MOL6544     0.2052
  32632  H        189.2380  161.7430  133.1930 H     6544  MOL6544     0.2052
  32633  O         99.5380  126.9480  191.8840 O.3   6545  MOL6545    -0.4105
  32634  H         99.3200  126.7700  192.8230 H     6545  MOL6545     0.2052
  32635  H        100.5250  126.9390  191.7870 H     6545  MOL6545     0.2052
  32636  O        131.0940  181.5100   32.9010 O.3   6546  MOL6546    -0.4105
  32637  H        131.0730  182.4690   33.1040 H     6546  MOL6546     0.2052
  32638  H        130.2470  181.1060   33.2250 H     6546  MOL6546     0.2052
  32639  O         14.8280  160.1220   74.0190 O.3   6547  MOL6547    -0.4105
  32640  H         15.0690  160.9800   74.4270 H     6547  MOL6547     0.2052
  32641  H         13.8500  159.9920   74.1240 H     6547  MOL6547     0.2052
  32642  O         93.8540  183.8050  204.0380 O.3   6548  MOL6548    -0.4105
  32643  H         94.6600  184.1770  204.4540 H     6548  MOL6548     0.2052
  32644  H         93.2920  183.4080  204.7520 H     6548  MOL6548     0.2052
  32645  O         20.0490  173.1240  286.6620 O.3   6549  MOL6549    -0.4105
  32646  H         19.4940  172.7220  287.3640 H     6549  MOL6549     0.2052
  32647  H         19.8880  172.6280  285.8180 H     6549  MOL6549     0.2052
  32648  O         47.9400   30.3330  256.1180 O.3   6550  MOL6550    -0.4105
  32649  H         47.1910   30.1650  255.5090 H     6550  MOL6550     0.2052
  32650  H         47.7050   31.1080  256.6920 H     6550  MOL6550     0.2052
  32651  O        189.1900   92.2250  278.2290 O.3   6551  MOL6551    -0.4105
  32652  H        189.0990   93.0160  278.8010 H     6551  MOL6551     0.2052
  32653  H        188.8180   91.4450  278.7160 H     6551  MOL6551     0.2052
  32654  O         93.6310   63.7120  286.4200 O.3   6552  MOL6552    -0.4105
  32655  H         93.9280   64.6400  286.3200 H     6552  MOL6552     0.2052
  32656  H         92.6460   63.7120  286.5400 H     6552  MOL6552     0.2052
  32657  O        141.3120  182.6330  268.9740 O.3   6553  MOL6553    -0.4105
  32658  H        142.0970  182.9880  269.4410 H     6553  MOL6553     0.2052
  32659  H        140.5620  183.2710  269.0980 H     6553  MOL6553     0.2052
  32660  O        174.1210  104.7670  173.1050 O.3   6554  MOL6554    -0.4105
  32661  H        173.9320  104.7920  174.0660 H     6554  MOL6554     0.2052
  32662  H        174.9400  105.3000  172.9360 H     6554  MOL6554     0.2052
  32663  O        197.8000   23.6260  253.4920 O.3   6555  MOL6555    -0.4105
  32664  H        196.8260   23.6800  253.4060 H     6555  MOL6555     0.2052
  32665  H        198.0690   22.6770  253.3860 H     6555  MOL6555     0.2052
  32666  O        133.8430  175.7060   82.0870 O.3   6556  MOL6556    -0.4105
  32667  H        132.9880  175.2350   82.1690 H     6556  MOL6556     0.2052
  32668  H        134.0090  175.8820   81.1250 H     6556  MOL6556     0.2052
  32669  O        184.5760  133.6070  232.8550 O.3   6557  MOL6557    -0.4105
  32670  H        183.7210  134.0860  232.8560 H     6557  MOL6557     0.2052
  32671  H        185.3080  134.2770  232.8560 H     6557  MOL6557     0.2052
  32672  O         16.4070  174.7420  246.0030 O.3   6558  MOL6558    -0.4105
  32673  H         16.8010  173.9410  246.4080 H     6558  MOL6558     0.2052
  32674  H         15.6680  175.0530  246.5880 H     6558  MOL6558     0.2052
  32675  O        114.7290   13.0130  183.9950 O.3   6559  MOL6559    -0.4105
  32676  H        115.3290   12.6020  183.3370 H     6559  MOL6559     0.2052
  32677  H        114.6050   12.3730  184.7440 H     6559  MOL6559     0.2052
  32678  O        156.6490   30.7080  133.6990 O.3   6560  MOL6560    -0.4105
  32679  H        157.5780   30.7390  133.3900 H     6560  MOL6560     0.2052
  32680  H        156.4950   29.8290  134.1330 H     6560  MOL6560     0.2052
  32681  O         83.9580  120.6180  292.3390 O.3   6561  MOL6561    -0.4105
  32682  H         84.4330  121.2150  292.9540 H     6561  MOL6561     0.2052
  32683  H         83.7730  121.1170  291.5010 H     6561  MOL6561     0.2052
  32684  O         16.8100   27.1660  292.7110 O.3   6562  MOL6562    -0.4105
  32685  H         16.9790   26.2020  292.7740 H     6562  MOL6562     0.2052
  32686  H         15.8300   27.3040  292.6340 H     6562  MOL6562     0.2052
  32687  O        159.8730  167.0320  234.8690 O.3   6563  MOL6563    -0.4105
  32688  H        159.1050  166.4650  235.0890 H     6563  MOL6563     0.2052
  32689  H        159.8040  167.8680  235.3990 H     6563  MOL6563     0.2052
  32690  O          9.1570  140.8720   12.2990 O.3   6564  MOL6564    -0.4105
  32691  H          8.7480  141.7550   12.1800 H     6564  MOL6564     0.2052
  32692  H          8.4510  140.1850   12.1750 H     6564  MOL6564     0.2052
  32693  O        102.2850  146.5150  268.2350 O.3   6565  MOL6565    -0.4105
  32694  H        103.0690  147.1020  268.2020 H     6565  MOL6565     0.2052
  32695  H        102.6030  145.5750  268.2670 H     6565  MOL6565     0.2052
  32696  O        178.1770   93.9880  260.3350 O.3   6566  MOL6566    -0.4105
  32697  H        177.9130   93.6230  259.4650 H     6566  MOL6566     0.2052
  32698  H        177.4930   93.7220  261.0030 H     6566  MOL6566     0.2052
  32699  O        108.7030  105.9050  255.0790 O.3   6567  MOL6567    -0.4105
  32700  H        108.6550  105.4480  255.9440 H     6567  MOL6567     0.2052
  32701  H        109.6410  106.1950  254.9330 H     6567  MOL6567     0.2052
  32702  O        125.3710  105.2720   66.5730 O.3   6568  MOL6568    -0.4105
  32703  H        126.3080  105.5580   66.5710 H     6568  MOL6568     0.2052
  32704  H        125.2900  104.4710   65.9930 H     6568  MOL6568     0.2052
  32705  O        174.0310  105.8300  292.7190 O.3   6569  MOL6569    -0.4105
  32706  H        174.0540  105.0180  293.2680 H     6569  MOL6569     0.2052
  32707  H        174.0530  106.6150  293.3260 H     6569  MOL6569     0.2052
  32708  O        151.2420  174.7800  126.6160 O.3   6570  MOL6570    -0.4105
  32709  H        150.6550  175.5570  126.5070 H     6570  MOL6570     0.2052
  32710  H        150.7160  173.9620  126.4210 H     6570  MOL6570     0.2052
  32711  O        174.8660  138.2950   46.7490 O.3   6571  MOL6571    -0.4105
  32712  H        175.2220  137.9750   45.8940 H     6571  MOL6571     0.2052
  32713  H        175.1700  139.2300   46.8820 H     6571  MOL6571     0.2052
  32714  O         76.2950   46.1570   22.8810 O.3   6572  MOL6572    -0.4105
  32715  H         76.0300   45.2130   22.8810 H     6572  MOL6572     0.2052
  32716  H         75.4710   46.7100   22.8800 H     6572  MOL6572     0.2052
  32717  O        142.7350   36.9710   47.9230 O.3   6573  MOL6573    -0.4105
  32718  H        142.9290   36.0210   47.7840 H     6573  MOL6573     0.2052
  32719  H        142.5710   37.3880   47.0380 H     6573  MOL6573     0.2052
  32720  O         50.6870  115.8920  215.9910 O.3   6574  MOL6574    -0.4105
  32721  H         51.6660  115.9320  215.9750 H     6574  MOL6574     0.2052
  32722  H         50.3370  116.8190  215.9350 H     6574  MOL6574     0.2052
  32723  O        101.9330  189.3700   22.4670 O.3   6575  MOL6575    -0.4105
  32724  H        100.9930  189.3480   22.7430 H     6575  MOL6575     0.2052
  32725  H        102.0710  188.6680   21.7790 H     6575  MOL6575     0.2052
  32726  O          0.2330   41.7580  141.8660 O.3   6576  MOL6576    -0.4105
  32727  H          1.2060   41.6390  141.8580 H     6576  MOL6576     0.2052
  32728  H          0.0300   42.6750  141.5460 H     6576  MOL6576     0.2052
  32729  O         40.0440  179.0880   56.4260 O.3   6577  MOL6577    -0.4105
  32730  H         41.0150  178.9730   56.3540 H     6577  MOL6577     0.2052
  32731  H         39.6170  178.6080   55.6700 H     6577  MOL6577     0.2052
  32732  O        121.4240   17.3660  125.6380 O.3   6578  MOL6578    -0.4105
  32733  H        121.2430   17.5870  126.5760 H     6578  MOL6578     0.2052
  32734  H        121.5990   18.2100  125.1480 H     6578  MOL6578     0.2052
  32735  O         12.4530   88.2010  200.2740 O.3   6579  MOL6579    -0.4105
  32736  H         12.6680   87.2560  200.4220 H     6579  MOL6579     0.2052
  32737  H         13.1200   88.5760  199.6430 H     6579  MOL6579     0.2052
  32738  O         19.6320   91.5980  219.5640 O.3   6580  MOL6580    -0.4105
  32739  H         19.7600   91.1800  218.6860 H     6580  MOL6580     0.2052
  32740  H         18.9350   91.0870  220.0520 H     6580  MOL6580     0.2052
  32741  O        150.7420   79.5730   26.9200 O.3   6581  MOL6581    -0.4105
  32742  H        150.8240   79.3090   27.8600 H     6581  MOL6581     0.2052
  32743  H        151.2040   80.4420   26.7990 H     6581  MOL6581     0.2052
  32744  O        165.1800   90.2470  226.6810 O.3   6582  MOL6582    -0.4105
  32745  H        164.6330   89.8230  225.9880 H     6582  MOL6582     0.2052
  32746  H        165.8300   90.8510  226.2370 H     6582  MOL6582     0.2052
  32747  O        108.2660  145.5820  233.0030 O.3   6583  MOL6583    -0.4105
  32748  H        107.7390  146.4080  233.0230 H     6583  MOL6583     0.2052
  32749  H        107.6450  144.8200  232.8680 H     6583  MOL6583     0.2052
  32750  O        120.7340   69.6740  197.9790 O.3   6584  MOL6584    -0.4105
  32751  H        121.6160   69.4890  197.5950 H     6584  MOL6584     0.2052
  32752  H        120.5790   70.6540  197.9440 H     6584  MOL6584     0.2052
  32753  O        189.6400   99.8140   87.9590 O.3   6585  MOL6585    -0.4105
  32754  H        189.3340   99.0880   88.5420 H     6585  MOL6585     0.2052
  32755  H        189.4720   99.5490   87.0180 H     6585  MOL6585     0.2052
  32756  O        125.7320   21.9580   78.5140 O.3   6586  MOL6586    -0.4105
  32757  H        126.3670   22.6160   78.8680 H     6586  MOL6586     0.2052
  32758  H        124.9620   22.4480   78.1260 H     6586  MOL6586     0.2052
  32759  O        167.3460   80.5460  252.1210 O.3   6587  MOL6587    -0.4105
  32760  H        166.5510   81.1190  252.1260 H     6587  MOL6587     0.2052
  32761  H        167.6320   80.4190  251.1790 H     6587  MOL6587     0.2052
  32762  O          3.3520  184.1790   66.2750 O.3   6588  MOL6588    -0.4105
  32763  H          3.2380  184.5790   67.1620 H     6588  MOL6588     0.2052
  32764  H          4.3010  183.9050   66.1780 H     6588  MOL6588     0.2052
  32765  O        168.1920   71.7160   11.0370 O.3   6589  MOL6589    -0.4105
  32766  H        167.6030   70.9340   10.9990 H     6589  MOL6589     0.2052
  32767  H        167.6260   72.5290   11.0910 H     6589  MOL6589     0.2052
  32768  O        161.0830   70.8830  153.8290 O.3   6590  MOL6590    -0.4105
  32769  H        161.7740   71.0190  154.5100 H     6590  MOL6590     0.2052
  32770  H        160.6000   71.7400  153.7000 H     6590  MOL6590     0.2052
  32771  O         70.4700  137.0510  218.5930 O.3   6591  MOL6591    -0.4105
  32772  H         70.4260  136.0720  218.5900 H     6591  MOL6591     0.2052
  32773  H         70.0670  137.3820  217.7490 H     6591  MOL6591     0.2052
  32774  O        160.6980   56.4530  148.8840 O.3   6592  MOL6592    -0.4105
  32775  H        160.0690   55.7680  148.5760 H     6592  MOL6592     0.2052
  32776  H        161.6140   56.0710  148.8490 H     6592  MOL6592     0.2052
  32777  O         96.0010  150.9450   47.9300 O.3   6593  MOL6593    -0.4105
  32778  H         95.7650  151.0040   46.9810 H     6593  MOL6593     0.2052
  32779  H         96.4110  150.0560   48.0930 H     6593  MOL6593     0.2052
  32780  O        184.8130  141.5040  282.3460 O.3   6594  MOL6594    -0.4105
  32781  H        184.3660  140.8190  281.8060 H     6594  MOL6594     0.2052
  32782  H        185.6120  141.8190  281.8500 H     6594  MOL6594     0.2052
  32783  O        165.6920   10.6510  266.4000 O.3   6595  MOL6595    -0.4105
  32784  H        165.0130   11.3520  266.3140 H     6595  MOL6595     0.2052
  32785  H        166.5850   11.0830  266.4120 H     6595  MOL6595     0.2052
  32786  O        195.7610   38.5460   76.9500 O.3   6596  MOL6596    -0.4105
  32787  H        196.3290   39.3170   76.7390 H     6596  MOL6596     0.2052
  32788  H        195.0720   38.4640   76.2410 H     6596  MOL6596     0.2052
  32789  O         68.2950    9.6840  185.1600 O.3   6597  MOL6597    -0.4105
  32790  H         67.9220    9.3540  186.0050 H     6597  MOL6597     0.2052
  32791  H         68.4400    8.9060  184.5610 H     6597  MOL6597     0.2052
  32792  O         49.3050  156.2640   11.7120 O.3   6598  MOL6598    -0.4105
  32793  H         50.2020  155.9270   11.5090 H     6598  MOL6598     0.2052
  32794  H         48.6820  155.4920   11.7370 H     6598  MOL6598     0.2052
  32795  O         33.1800   56.8420   48.5870 O.3   6599  MOL6599    -0.4105
  32796  H         33.4900   56.1340   49.1900 H     6599  MOL6599     0.2052
  32797  H         33.9730   57.3490   48.2710 H     6599  MOL6599     0.2052
  32798  O         39.8780   87.7950  194.8820 O.3   6600  MOL6600    -0.4105
  32799  H         39.6870   88.7560  194.8720 H     6600  MOL6600     0.2052
  32800  H         40.8610   87.6730  194.8260 H     6600  MOL6600     0.2052
  32801  O        116.3990  185.1580  228.0290 O.3   6601  MOL6601    -0.4105
  32802  H        116.9610  184.9220  227.2610 H     6601  MOL6601     0.2052
  32803  H        116.9820  185.2320  228.8290 H     6601  MOL6601     0.2052
  32804  O         43.9430   42.6160  235.7530 O.3   6602  MOL6602    -0.4105
  32805  H         43.9230   41.8990  235.0860 H     6602  MOL6602     0.2052
  32806  H         44.6630   43.2520  235.5040 H     6602  MOL6602     0.2052
  32807  O        176.4780   15.9070   45.9970 O.3   6603  MOL6603    -0.4105
  32808  H        176.2430   15.4860   45.1440 H     6603  MOL6603     0.2052
  32809  H        176.9100   15.2220   46.5720 H     6603  MOL6603     0.2052
  32810  O          2.0410   80.1530  113.8540 O.3   6604  MOL6604    -0.4105
  32811  H          1.4380   79.3800  113.8490 H     6604  MOL6604     0.2052
  32812  H          1.4880   80.9770  113.8370 H     6604  MOL6604     0.2052
  32813  O         85.7990   95.3630  296.2460 O.3   6605  MOL6605    -0.4105
  32814  H         85.3400   95.4890  297.1030 H     6605  MOL6605     0.2052
  32815  H         85.5720   94.4610  295.9020 H     6605  MOL6605     0.2052
  32816  O          1.5410  179.5420  104.3000 O.3   6606  MOL6606    -0.4105
  32817  H          1.2300  180.4700  104.3380 H     6606  MOL6606     0.2052
  32818  H          2.4610  179.5070  104.6680 H     6606  MOL6606     0.2052
  32819  O        147.7340  133.4860  172.5210 O.3   6607  MOL6607    -0.4105
  32820  H        147.5060  134.2350  173.1110 H     6607  MOL6607     0.2052
  32821  H        148.7200  133.3720  172.5310 H     6607  MOL6607     0.2052
  32822  O        157.0020  109.3050  255.9890 O.3   6608  MOL6608    -0.4105
  32823  H        156.2150  108.9370  255.5350 H     6608  MOL6608     0.2052
  32824  H        157.2840  108.6640  256.6920 H     6608  MOL6608     0.2052
  32825  O          7.3470  157.2290  204.9010 O.3   6609  MOL6609    -0.4105
  32826  H          7.7180  156.3220  204.8640 H     6609  MOL6609     0.2052
  32827  H          7.4170  157.5550  205.8350 H     6609  MOL6609     0.2052
  32828  O        136.9470   95.7590  162.8990 O.3   6610  MOL6610    -0.4105
  32829  H        136.3010   95.3450  163.5090 H     6610  MOL6610     0.2052
  32830  H        136.4430   96.2310  162.1870 H     6610  MOL6610     0.2052
  32831  O        183.6280   46.0480  151.8550 O.3   6611  MOL6611    -0.4105
  32832  H        183.1820   45.3800  151.2940 H     6611  MOL6611     0.2052
  32833  H        183.3530   45.8960  152.7960 H     6611  MOL6611     0.2052
  32834  O        199.2560   95.8570  252.7900 O.3   6612  MOL6612    -0.4105
  32835  H        198.8390   96.5160  252.1970 H     6612  MOL6612     0.2052
  32836  H        198.7550   95.0040  252.7070 H     6612  MOL6612     0.2052
  32837  O         48.6990  122.5720   70.3960 O.3   6613  MOL6613    -0.4105
  32838  H         48.6740  121.6600   70.0360 H     6613  MOL6613     0.2052
  32839  H         47.8320  122.7520   70.8450 H     6613  MOL6613     0.2052
  32840  O         47.0540  179.1800  291.6340 O.3   6614  MOL6614    -0.4105
  32841  H         47.2970  180.1300  291.6300 H     6614  MOL6614     0.2052
  32842  H         47.7450  178.6860  292.1480 H     6614  MOL6614     0.2052
  32843  O         87.2590   79.5320   23.5980 O.3   6615  MOL6615    -0.4105
  32844  H         86.8860   78.8520   22.9990 H     6615  MOL6615     0.2052
  32845  H         87.4840   80.3330   23.0560 H     6615  MOL6615     0.2052
  32846  O        181.4910   95.6160   52.5190 O.3   6616  MOL6616    -0.4105
  32847  H        182.2480   95.2310   52.0300 H     6616  MOL6616     0.2052
  32848  H        180.6680   95.1340   52.2460 H     6616  MOL6616     0.2052
  32849  O         89.4990  153.7830  162.7120 O.3   6617  MOL6617    -0.4105
  32850  H         90.4210  153.9850  162.4470 H     6617  MOL6617     0.2052
  32851  H         89.0980  153.1950  162.0210 H     6617  MOL6617     0.2052
  32852  O        196.1490  116.5850  223.2940 O.3   6618  MOL6618    -0.4105
  32853  H        195.1760  116.7060  223.2920 H     6618  MOL6618     0.2052
  32854  H        196.5690  117.4420  223.0240 H     6618  MOL6618     0.2052
  32855  O         50.2230  197.5180  274.8420 O.3   6619  MOL6619    -0.4105
  32856  H         50.2070  198.4000  274.4150 H     6619  MOL6619     0.2052
  32857  H         49.3380  197.3600  275.2620 H     6619  MOL6619     0.2052
  32858  O        134.1720   28.0230  298.1950 O.3   6620  MOL6620    -0.4105
  32859  H        133.6760   28.4850  298.9030 H     6620  MOL6620     0.2052
  32860  H        135.0680   28.4440  298.1190 H     6620  MOL6620     0.2052
  32861  O        178.9380  179.6410  156.9510 O.3   6621  MOL6621    -0.4105
  32862  H        177.9970  179.9160  156.9510 H     6621  MOL6621     0.2052
  32863  H        178.9900  178.7170  156.5910 H     6621  MOL6621     0.2052
  32864  O        134.0720   27.1440   57.4270 O.3   6622  MOL6622    -0.4105
  32865  H        133.6370   27.5270   56.6360 H     6622  MOL6622     0.2052
  32866  H        135.0490   27.2970   57.3480 H     6622  MOL6622     0.2052
  32867  O        175.6170  131.4870   56.4500 O.3   6623  MOL6623    -0.4105
  32868  H        176.2580  131.5060   57.1910 H     6623  MOL6623     0.2052
  32869  H        174.7010  131.5290   56.8290 H     6623  MOL6623     0.2052
  32870  O        112.1160  188.4220   70.0280 O.3   6624  MOL6624    -0.4105
  32871  H        112.6390  189.1710   69.6740 H     6624  MOL6624     0.2052
  32872  H        112.7210  187.6430   70.1330 H     6624  MOL6624     0.2052
  32873  O        101.6470   65.1670  195.9780 O.3   6625  MOL6625    -0.4105
  32874  H        102.2610   65.7650  196.4530 H     6625  MOL6625     0.2052
  32875  H        101.8110   65.2630  195.0040 H     6625  MOL6625     0.2052
  32876  O        145.1720   77.0690  175.8320 O.3   6626  MOL6626    -0.4105
  32877  H        145.9170   77.4060  175.2920 H     6626  MOL6626     0.2052
  32878  H        145.3900   77.2160  176.7880 H     6626  MOL6626     0.2052
  32879  O         67.5130   59.2990   31.7060 O.3   6627  MOL6627    -0.4105
  32880  H         66.9420   58.5380   31.9410 H     6627  MOL6627     0.2052
  32881  H         67.5840   59.3400   30.7170 H     6627  MOL6627     0.2052
  32882  O        180.1290  138.0780   76.6130 O.3   6628  MOL6628    -0.4105
  32883  H        180.8620  138.1310   75.9650 H     6628  MOL6628     0.2052
  32884  H        179.6640  137.2110   76.4850 H     6628  MOL6628     0.2052
  32885  O         74.2840   50.3730  163.5350 O.3   6629  MOL6629    -0.4105
  32886  H         75.0860   50.8620  163.8160 H     6629  MOL6629     0.2052
  32887  H         73.5960   50.4730  164.2430 H     6629  MOL6629     0.2052
  32888  O        189.2830  182.7100  274.5400 O.3   6630  MOL6630    -0.4105
  32889  H        189.9820  182.8880  275.2040 H     6630  MOL6630     0.2052
  32890  H        189.2580  181.7330  274.3700 H     6630  MOL6630     0.2052
  32891  O        170.7130   43.6280  205.0820 O.3   6631  MOL6631    -0.4105
  32892  H        171.1580   43.1840  204.3310 H     6631  MOL6631     0.2052
  32893  H        170.0290   44.2470  204.7160 H     6631  MOL6631     0.2052
  32894  O        120.2980   57.2170  212.8140 O.3   6632  MOL6632    -0.4105
  32895  H        119.9540   56.6870  213.5640 H     6632  MOL6632     0.2052
  32896  H        120.0810   58.1710  212.9830 H     6632  MOL6632     0.2052
  32897  O         53.2280   68.0280   31.3220 O.3   6633  MOL6633    -0.4105
  32898  H         53.7260   68.7010   30.8120 H     6633  MOL6633     0.2052
  32899  H         52.9770   68.4250   32.1960 H     6633  MOL6633     0.2052
  32900  O         64.7600   43.9030    4.1650 O.3   6634  MOL6634    -0.4105
  32901  H         64.2050   43.3220    3.6030 H     6634  MOL6634     0.2052
  32902  H         65.6700   43.9390    3.7700 H     6634  MOL6634     0.2052
  32903  O         76.3530    8.4360   54.1940 O.3   6635  MOL6635    -0.4105
  32904  H         75.6590    7.7550   54.3200 H     6635  MOL6635     0.2052
  32905  H         77.2380    7.9910   54.2510 H     6635  MOL6635     0.2052
  32906  O        104.4680  125.6890  188.5940 O.3   6636  MOL6636    -0.4105
  32907  H        103.6590  126.2030  188.3890 H     6636  MOL6636     0.2052
  32908  H        104.2400  124.7240  188.5580 H     6636  MOL6636     0.2052
  32909  O          5.6580  156.1180  183.3750 O.3   6637  MOL6637    -0.4105
  32910  H          5.4220  156.0520  184.3240 H     6637  MOL6637     0.2052
  32911  H          4.9250  156.5940  182.9050 H     6637  MOL6637     0.2052
  32912  O        110.8930  130.9460  199.2050 O.3   6638  MOL6638    -0.4105
  32913  H        111.1790  131.4870  198.4400 H     6638  MOL6638     0.2052
  32914  H        111.2400  131.3700  200.0320 H     6638  MOL6638     0.2052
  32915  O         33.4780   53.2750   87.3650 O.3   6639  MOL6639    -0.4105
  32916  H         33.9690   53.6650   86.6120 H     6639  MOL6639     0.2052
  32917  H         32.7420   52.7180   87.0020 H     6639  MOL6639     0.2052
  32918  O        109.1950  198.5140  200.2240 O.3   6640  MOL6640    -0.4105
  32919  H        110.1750  198.5440  200.2490 H     6640  MOL6640     0.2052
  32920  H        108.8480  199.2300  200.8180 H     6640  MOL6640     0.2052
  32921  O        105.1730   28.4130  282.2870 O.3   6641  MOL6641    -0.4105
  32922  H        105.9120   29.0200  282.0710 H     6641  MOL6641     0.2052
  32923  H        105.3690   27.5290  281.8820 H     6641  MOL6641     0.2052
  32924  O        129.9770   19.2470  281.0140 O.3   6642  MOL6642    -0.4105
  32925  H        129.7190   19.5910  280.1330 H     6642  MOL6642     0.2052
  32926  H        130.9640   19.3100  281.0950 H     6642  MOL6642     0.2052
  32927  O         45.5870   26.4290  169.5890 O.3   6643  MOL6643    -0.4105
  32928  H         45.2340   27.2250  169.1410 H     6643  MOL6643     0.2052
  32929  H         44.8870   25.7260  169.5700 H     6643  MOL6643     0.2052
  32930  O        125.6830  145.2000  197.4430 O.3   6644  MOL6644    -0.4105
  32931  H        125.3630  144.2780  197.5330 H     6644  MOL6644     0.2052
  32932  H        126.6670  145.1750  197.3150 H     6644  MOL6644     0.2052
  32933  O        149.9300  178.4530   44.7330 O.3   6645  MOL6645    -0.4105
  32934  H        150.6100  177.8530   45.1040 H     6645  MOL6645     0.2052
  32935  H        149.9300  178.3490   43.7460 H     6645  MOL6645     0.2052
  32936  O        185.9500  140.8610   24.4330 O.3   6646  MOL6646    -0.4105
  32937  H        185.1010  140.6440   24.8730 H     6646  MOL6646     0.2052
  32938  H        186.2800  141.7200   24.8050 H     6646  MOL6646     0.2052
  32939  O        165.2680  158.5840  220.1000 O.3   6647  MOL6647    -0.4105
  32940  H        165.6470  158.8070  219.2250 H     6647  MOL6647     0.2052
  32941  H        164.4570  159.1400  220.2380 H     6647  MOL6647     0.2052
  32942  O         43.8780   44.5630  258.3650 O.3   6648  MOL6648    -0.4105
  32943  H         44.4320   44.7900  257.5890 H     6648  MOL6648     0.2052
  32944  H         44.4750   44.4290  259.1450 H     6648  MOL6648     0.2052
  32945  O        165.8360   67.2410  267.1990 O.3   6649  MOL6649    -0.4105
  32946  H        166.3020   66.3790  267.2130 H     6649  MOL6649     0.2052
  32947  H        166.5150   67.9620  267.2560 H     6649  MOL6649     0.2052
  32948  O        158.3060   23.5820  122.2410 O.3   6650  MOL6650    -0.4105
  32949  H        159.2770   23.6620  122.1370 H     6650  MOL6650     0.2052
  32950  H        158.0130   24.2300  122.9330 H     6650  MOL6650     0.2052
  32951  O        100.4310  153.1820   13.2080 O.3   6651  MOL6651    -0.4105
  32952  H         99.9950  152.6130   12.5400 H     6651  MOL6651     0.2052
  32953  H         99.8470  153.9670   13.3740 H     6651  MOL6651     0.2052
  32954  O        115.2260  170.5020  201.1500 O.3   6652  MOL6652    -0.4105
  32955  H        114.4610  170.7780  200.6030 H     6652  MOL6652     0.2052
  32956  H        114.8860  169.9610  201.9090 H     6652  MOL6652     0.2052
  32957  O        118.8620  100.1340  203.3540 O.3   6653  MOL6653    -0.4105
  32958  H        118.6450  101.0850  203.2590 H     6653  MOL6653     0.2052
  32959  H        118.0730   99.6730  203.7400 H     6653  MOL6653     0.2052
  32960  O        154.9640  199.0540  168.7670 O.3   6654  MOL6654    -0.4105
  32961  H        154.0260  198.8390  168.9540 H     6654  MOL6654     0.2052
  32962  H        155.5070  198.2380  168.9260 H     6654  MOL6654     0.2052
  32963  O         67.3670  122.4540  169.8140 O.3   6655  MOL6655    -0.4105
  32964  H         67.2420  121.5110  169.5790 H     6655  MOL6655     0.2052
  32965  H         68.3080  122.5790  170.1060 H     6655  MOL6655     0.2052
  32966  O         68.1020  173.8210  117.2820 O.3   6656  MOL6656    -0.4105
  32967  H         68.9680  174.2770  117.3260 H     6656  MOL6656     0.2052
  32968  H         67.8510  173.5410  118.2000 H     6656  MOL6656     0.2052
  32969  O          5.8660   17.5730  261.4350 O.3   6657  MOL6657    -0.4105
  32970  H          5.1640   18.1830  261.7450 H     6657  MOL6657     0.2052
  32971  H          6.7100   17.8090  261.9000 H     6657  MOL6657     0.2052
  32972  O        190.3650  110.2620  194.0360 O.3   6658  MOL6658    -0.4105
  32973  H        189.4770  110.6570  193.9100 H     6658  MOL6658     0.2052
  32974  H        190.2610  109.4230  194.5550 H     6658  MOL6658     0.2052
  32975  O         38.8910  193.4450  282.2770 O.3   6659  MOL6659    -0.4105
  32976  H         37.9140  193.5050  282.3240 H     6659  MOL6659     0.2052
  32977  H         39.1400  192.4890  282.1810 H     6659  MOL6659     0.2052
  32978  O          7.6850    6.4630  182.0070 O.3   6660  MOL6660    -0.4105
  32979  H          8.4250    7.1060  181.9900 H     6660  MOL6660     0.2052
  32980  H          6.8320    6.9710  182.0110 H     6660  MOL6660     0.2052
  32981  O        162.8690  164.2500   38.7550 O.3   6661  MOL6661    -0.4105
  32982  H        162.2260  164.8060   38.2660 H     6661  MOL6661     0.2052
  32983  H        162.6200  164.2590   39.7150 H     6661  MOL6661     0.2052
  32984  O        170.7710   28.5240  289.6320 O.3   6662  MOL6662    -0.4105
  32985  H        171.0880   27.6000  289.5450 H     6662  MOL6662     0.2052
  32986  H        169.8590   28.5760  289.2450 H     6662  MOL6662     0.2052
  32987  O        171.2610   59.5800   15.2460 O.3   6663  MOL6663    -0.4105
  32988  H        171.6920   58.9550   15.8660 H     6663  MOL6663     0.2052
  32989  H        171.2360   60.4750   15.6750 H     6663  MOL6663     0.2052
  32990  O        102.6810    9.7500  232.8320 O.3   6664  MOL6664    -0.4105
  32991  H        101.7360    9.9980  232.9050 H     6664  MOL6664     0.2052
  32992  H        102.7390    8.7600  232.7890 H     6664  MOL6664     0.2052
  32993  O        105.9770   62.6660  212.0040 O.3   6665  MOL6665    -0.4105
  32994  H        106.4780   61.8240  212.0070 H     6665  MOL6665     0.2052
  32995  H        106.0470   63.0660  211.0990 H     6665  MOL6665     0.2052
  32996  O        109.3360   80.9910  210.2160 O.3   6666  MOL6666    -0.4105
  32997  H        109.4610   80.0290  210.3550 H     6666  MOL6666     0.2052
  32998  H        108.4000   81.2200  210.4510 H     6666  MOL6666     0.2052
  32999  O         72.4340   36.4700  291.4850 O.3   6667  MOL6667    -0.4105
  33000  H         73.0510   35.7110  291.5440 H     6667  MOL6667     0.2052
  33001  H         71.6690   36.2970  292.0930 H     6667  MOL6667     0.2052
  33002  O         86.0050  163.8580   15.6930 O.3   6668  MOL6668    -0.4105
  33003  H         86.7790  164.4160   15.4690 H     6668  MOL6668     0.2052
  33004  H         86.3390  162.9790   16.0110 H     6668  MOL6668     0.2052
  33005  O         91.0340  128.1410  257.0110 O.3   6669  MOL6669    -0.4105
  33006  H         90.6810  127.6000  257.7480 H     6669  MOL6669     0.2052
  33007  H         90.2690  128.4540  256.4610 H     6669  MOL6669     0.2052
  33008  O         75.8270   33.2500  234.2900 O.3   6670  MOL6670    -0.4105
  33009  H         76.6880   32.8830  234.5820 H     6670  MOL6670     0.2052
  33010  H         75.1370   32.9850  234.9520 H     6670  MOL6670     0.2052
  33011  O         67.1740   41.9210  147.3370 O.3   6671  MOL6671    -0.4105
  33012  H         68.0930   42.2480  147.4280 H     6671  MOL6671     0.2052
  33013  H         67.1990   40.9300  147.3040 H     6671  MOL6671     0.2052
  33014  O        146.1180  179.8900  222.3240 O.3   6672  MOL6672    -0.4105
  33015  H        145.4470  180.4870  222.7170 H     6672  MOL6672     0.2052
  33016  H        147.0040  180.3320  222.3910 H     6672  MOL6672     0.2052
  33017  O        164.7970   48.2560  277.4910 O.3   6673  MOL6673    -0.4105
  33018  H        164.3410   48.9490  276.9700 H     6673  MOL6673     0.2052
  33019  H        165.7130   48.5760  277.6980 H     6673  MOL6673     0.2052
  33020  O        149.0190   33.6370  199.5340 O.3   6674  MOL6674    -0.4105
  33021  H        148.4710   33.2900  200.2690 H     6674  MOL6674     0.2052
  33022  H        149.7580   34.1720  199.9240 H     6674  MOL6674     0.2052
  33023  O        172.0520   15.4530  162.0570 O.3   6675  MOL6675    -0.4105
  33024  H        172.0510   15.3880  163.0350 H     6675  MOL6675     0.2052
  33025  H        172.9730   15.2720  161.7340 H     6675  MOL6675     0.2052
  33026  O        193.5710  103.6190   42.5670 O.3   6676  MOL6676    -0.4105
  33027  H        194.4750  103.7320   42.9290 H     6676  MOL6676     0.2052
  33028  H        193.1720  104.5200   42.4440 H     6676  MOL6676     0.2052
  33029  O        161.0230   21.0370  275.1910 O.3   6677  MOL6677    -0.4105
  33030  H        160.2700   20.4330  275.3600 H     6677  MOL6677     0.2052
  33031  H        161.0830   21.1930  274.2130 H     6677  MOL6677     0.2052
  33032  O        112.9160   84.9160  202.8680 O.3   6678  MOL6678    -0.4105
  33033  H        112.0690   84.8930  203.3590 H     6678  MOL6678     0.2052
  33034  H        113.1800   83.9820  202.6610 H     6678  MOL6678     0.2052
  33035  O        175.6270  123.3030  281.0300 O.3   6679  MOL6679    -0.4105
  33036  H        175.0070  122.9810  281.7180 H     6679  MOL6679     0.2052
  33037  H        176.1650  122.5330  280.7120 H     6679  MOL6679     0.2052
  33038  O          5.6670   73.6780  210.5490 O.3   6680  MOL6680    -0.4105
  33039  H          4.8100   73.4520  210.9680 H     6680  MOL6680     0.2052
  33040  H          6.3520   73.0430  210.8820 H     6680  MOL6680     0.2052
  33041  O         83.4350   99.8220  236.6060 O.3   6681  MOL6681    -0.4105
  33042  H         83.8520   99.1570  237.1930 H     6681  MOL6681     0.2052
  33043  H         82.7830   99.3540  236.0220 H     6681  MOL6681     0.2052
  33044  O        170.0690  111.8250   70.6980 O.3   6682  MOL6682    -0.4105
  33045  H        169.8490  111.5370   71.6080 H     6682  MOL6682     0.2052
  33046  H        169.5480  111.2690   70.0620 H     6682  MOL6682     0.2052
  33047  O         94.3840  181.9090  273.7790 O.3   6683  MOL6683    -0.4105
  33048  H         94.9980  182.1760  273.0630 H     6683  MOL6683     0.2052
  33049  H         94.7510  181.0990  274.2180 H     6683  MOL6683     0.2052
  33050  O         19.6370  136.9920  196.7680 O.3   6684  MOL6684    -0.4105
  33051  H         19.0420  137.7700  196.7670 H     6684  MOL6684     0.2052
  33052  H         20.5740  137.3180  196.7660 H     6684  MOL6684     0.2052
  33053  O        151.4710  198.9630  216.3830 O.3   6685  MOL6685    -0.4105
  33054  H        151.5770  198.2650  215.7040 H     6685  MOL6685     0.2052
  33055  H        151.1290  199.7810  215.9380 H     6685  MOL6685     0.2052
  33056  O         46.4100   14.5400  163.5940 O.3   6686  MOL6686    -0.4105
  33057  H         47.2460   14.0530  163.4340 H     6686  MOL6686     0.2052
  33058  H         45.6960   14.1170  163.0500 H     6686  MOL6686     0.2052
  33059  O         49.0970   66.7060  183.3930 O.3   6687  MOL6687    -0.4105
  33060  H         49.5180   65.9420  182.9450 H     6687  MOL6687     0.2052
  33061  H         49.6490   67.5120  183.2160 H     6687  MOL6687     0.2052
  33062  O         65.7430    3.0070  275.3040 O.3   6688  MOL6688    -0.4105
  33063  H         66.6910    3.2430  275.2290 H     6688  MOL6688     0.2052
  33064  H         65.2170    3.8470  275.3510 H     6688  MOL6688     0.2052
  33065  O         25.8770  146.1860  142.6080 O.3   6689  MOL6689    -0.4105
  33066  H         26.7040  146.7120  142.5890 H     6689  MOL6689     0.2052
  33067  H         25.1100  146.8150  142.6450 H     6689  MOL6689     0.2052
  33068  O        177.7920   98.0680   25.7000 O.3   6690  MOL6690    -0.4105
  33069  H        177.0870   98.6660   26.0270 H     6690  MOL6690     0.2052
  33070  H        177.6890   97.9750   24.7180 H     6690  MOL6690     0.2052
  33071  O         92.5110    5.0590  242.3480 O.3   6691  MOL6691    -0.4105
  33072  H         92.1530    4.2890  241.8590 H     6691  MOL6691     0.2052
  33073  H         93.1930    4.7300  242.9890 H     6691  MOL6691     0.2052
  33074  O         30.1780   40.4720   80.8310 O.3   6692  MOL6692    -0.4105
  33075  H         29.5830   40.0590   80.1720 H     6692  MOL6692     0.2052
  33076  H         29.8490   41.3900   81.0170 H     6692  MOL6692     0.2052
  33077  O        103.9560   63.7680   31.7740 O.3   6693  MOL6693    -0.4105
  33078  H        104.3790   62.8840   31.7740 H     6693  MOL6693     0.2052
  33079  H        104.2030   64.2310   32.6160 H     6693  MOL6693     0.2052
  33080  O         31.9130  123.2610    8.9880 O.3   6694  MOL6694    -0.4105
  33081  H         31.0820  122.8090    8.7340 H     6694  MOL6694     0.2052
  33082  H         31.7410  124.2380    9.0090 H     6694  MOL6694     0.2052
  33083  O         90.5110   76.9900   72.7170 O.3   6695  MOL6695    -0.4105
  33084  H         90.1980   77.3200   71.8490 H     6695  MOL6695     0.2052
  33085  H         89.9470   76.2160   72.9770 H     6695  MOL6695     0.2052
  33086  O         60.4280  108.4440  222.6180 O.3   6696  MOL6696    -0.4105
  33087  H         59.7660  109.1660  222.5790 H     6696  MOL6696     0.2052
  33088  H         59.9420  107.5820  222.6950 H     6696  MOL6696     0.2052
  33089  O        112.0300   61.1030  192.1420 O.3   6697  MOL6697    -0.4105
  33090  H        111.3520   61.6370  192.6070 H     6697  MOL6697     0.2052
  33091  H        112.2730   61.5730  191.3030 H     6697  MOL6697     0.2052
  33092  O        164.0960    9.1560   84.0570 O.3   6698  MOL6698    -0.4105
  33093  H        163.6750    8.6590   84.7890 H     6698  MOL6698     0.2052
  33094  H        163.5640    9.9770   83.8910 H     6698  MOL6698     0.2052
  33095  O         27.5580  142.5960  149.9470 O.3   6699  MOL6699    -0.4105
  33096  H         26.8560  143.1140  150.3920 H     6699  MOL6699     0.2052
  33097  H         27.2320  141.6660  149.8310 H     6699  MOL6699     0.2052
  33098  O        182.2310  194.7280   11.2570 O.3   6700  MOL6700    -0.4105
  33099  H        183.1270  194.7160   10.8600 H     6700  MOL6700     0.2052
  33100  H        182.1820  195.4890   11.8910 H     6700  MOL6700     0.2052
  33101  O         47.7430  150.2260   17.8860 O.3   6701  MOL6701    -0.4105
  33102  H         47.5630  151.1350   17.5660 H     6701  MOL6701     0.2052
  33103  H         48.6420  149.9560   17.5630 H     6701  MOL6701     0.2052
  33104  O        159.6630  147.3450   58.6590 O.3   6702  MOL6702    -0.4105
  33105  H        159.2880  146.4410   58.6020 H     6702  MOL6702     0.2052
  33106  H        158.9110  147.9920   58.6710 H     6702  MOL6702     0.2052
  33107  O         66.9480  171.1150  130.2780 O.3   6703  MOL6703    -0.4105
  33108  H         66.0010  170.8680  130.2340 H     6703  MOL6703     0.2052
  33109  H         67.4460  170.3640  130.6920 H     6703  MOL6703     0.2052
  33110  O        172.8340   59.7290  201.5660 O.3   6704  MOL6704    -0.4105
  33111  H        171.9240   60.0350  201.3720 H     6704  MOL6704     0.2052
  33112  H        173.4320   60.5210  201.5790 H     6704  MOL6704     0.2052
  33113  O          2.2770  139.1420   52.8940 O.3   6705  MOL6705    -0.4105
  33114  H          2.1900  138.1670   52.9450 H     6705  MOL6705     0.2052
  33115  H          3.1850  139.3900   53.2060 H     6705  MOL6705     0.2052
  33116  O         50.7260   54.2910   78.6380 O.3   6706  MOL6706    -0.4105
  33117  H         50.8350   53.3190   78.5690 H     6706  MOL6706     0.2052
  33118  H         51.5680   54.6720   79.0000 H     6706  MOL6706     0.2052
  33119  O        123.7920  193.0070  284.6410 O.3   6707  MOL6707    -0.4105
  33120  H        123.6540  193.9090  284.9990 H     6707  MOL6707     0.2052
  33121  H        124.5660  192.6020  285.1110 H     6707  MOL6707     0.2052
  33122  O         15.3090   17.5140  176.0350 O.3   6708  MOL6708    -0.4105
  33123  H         15.7690   17.9850  175.3100 H     6708  MOL6708     0.2052
  33124  H         14.6500   18.1350  176.4410 H     6708  MOL6708     0.2052
  33125  O        175.2900   38.6940  239.2600 O.3   6709  MOL6709    -0.4105
  33126  H        174.5590   39.0900  239.7800 H     6709  MOL6709     0.2052
  33127  H        176.1440   39.0940  239.5690 H     6709  MOL6709     0.2052
  33128  O        131.1730  131.3660  229.4870 O.3   6710  MOL6710    -0.4105
  33129  H        131.9180  130.7320  229.4290 H     6710  MOL6710     0.2052
  33130  H        131.5460  132.2850  229.4840 H     6710  MOL6710     0.2052
  33131  O        134.9360  136.3110  241.9850 O.3   6711  MOL6711    -0.4105
  33132  H        135.8870  136.2820  241.7520 H     6711  MOL6711     0.2052
  33133  H        134.8550  136.6350  242.9190 H     6711  MOL6711     0.2052
  33134  O        112.9630    6.0600  283.8610 O.3   6712  MOL6712    -0.4105
  33135  H        112.7970    5.3570  283.1990 H     6712  MOL6712     0.2052
  33136  H        113.6270    6.6930  283.4830 H     6712  MOL6712     0.2052
  33137  O         28.0570    3.4120  237.4970 O.3   6713  MOL6713    -0.4105
  33138  H         27.4770    2.6600  237.2560 H     6713  MOL6713     0.2052
  33139  H         27.8870    4.1530  236.8590 H     6713  MOL6713     0.2052
  33140  O         53.1770   12.3480  143.6260 O.3   6714  MOL6714    -0.4105
  33141  H         52.2320   12.5810  143.5070 H     6714  MOL6714     0.2052
  33142  H         53.6110   12.3470  142.7330 H     6714  MOL6714     0.2052
  33143  O         17.5820   91.1370  260.6200 O.3   6715  MOL6715    -0.4105
  33144  H         17.1570   90.4250  260.0970 H     6715  MOL6715     0.2052
  33145  H         16.8690   91.6480  261.0840 H     6715  MOL6715     0.2052
  33146  O        154.2050   63.8420   45.5950 O.3   6716  MOL6716    -0.4105
  33147  H        153.9900   62.9520   45.2450 H     6716  MOL6716     0.2052
  33148  H        153.7800   63.9360   46.4860 H     6716  MOL6716     0.2052
  33149  O         57.8260   24.7890  164.1200 O.3   6717  MOL6717    -0.4105
  33150  H         57.3530   25.4250  164.6950 H     6717  MOL6717     0.2052
  33151  H         57.5520   23.8710  164.3790 H     6717  MOL6717     0.2052
  33152  O        178.7310  115.0750  102.5450 O.3   6718  MOL6718    -0.4105
  33153  H        179.5700  114.7830  102.1310 H     6718  MOL6718     0.2052
  33154  H        178.3640  114.3180  103.0710 H     6718  MOL6718     0.2052
  33155  O         33.6090   79.5270  225.8710 O.3   6719  MOL6719    -0.4105
  33156  H         33.3340   80.4630  225.9570 H     6719  MOL6719     0.2052
  33157  H         34.5300   79.5060  225.5030 H     6719  MOL6719     0.2052
  33158  O        163.2920   81.9640  223.3610 O.3   6720  MOL6720    -0.4105
  33159  H        162.8200   82.7210  223.7680 H     6720  MOL6720     0.2052
  33160  H        163.5850   82.2330  222.4520 H     6720  MOL6720     0.2052
  33161  O         94.0740  132.2590   17.8870 O.3   6721  MOL6721    -0.4105
  33162  H         95.0040  132.5590   17.9560 H     6721  MOL6721     0.2052
  33163  H         94.0700  131.3430   17.5050 H     6721  MOL6721     0.2052
  33164  O        138.0760  182.3410  229.3910 O.3   6722  MOL6722    -0.4105
  33165  H        139.0280  182.1380  229.5050 H     6722  MOL6722     0.2052
  33166  H        137.5610  181.5030  229.5220 H     6722  MOL6722     0.2052
  33167  O        103.3130   38.9410   62.3650 O.3   6723  MOL6723    -0.4105
  33168  H        102.3750   38.6920   62.5040 H     6723  MOL6723     0.2052
  33169  H        103.6880   38.3530   61.6590 H     6723  MOL6723     0.2052
  33170  O        194.9360    7.0300  185.0060 O.3   6724  MOL6724    -0.4105
  33171  H        194.2810    6.3130  184.8740 H     6724  MOL6724     0.2052
  33172  H        195.8210    6.6140  185.1760 H     6724  MOL6724     0.2052
  33173  O        117.1720  142.3480   11.1810 O.3   6725  MOL6725    -0.4105
  33174  H        116.2810  142.7540   11.1300 H     6725  MOL6725     0.2052
  33175  H        117.4460  142.3210   12.1340 H     6725  MOL6725     0.2052
  33176  O         47.0680  168.6710  180.5910 O.3   6726  MOL6726    -0.4105
  33177  H         47.2690  169.6120  180.4050 H     6726  MOL6726     0.2052
  33178  H         46.0970  168.5940  180.7820 H     6726  MOL6726     0.2052
  33179  O          1.6230  188.7500  297.5600 O.3   6727  MOL6727    -0.4105
  33180  H          1.8120  189.6260  297.1620 H     6727  MOL6727     0.2052
  33181  H          2.1860  188.6500  298.3710 H     6727  MOL6727     0.2052
  33182  O        119.9260   48.5670  194.6110 O.3   6728  MOL6728    -0.4105
  33183  H        119.6380   49.5040  194.6190 H     6728  MOL6728     0.2052
  33184  H        120.9190   48.5480  194.6030 H     6728  MOL6728     0.2052
  33185  O         87.8120  108.5220  277.4770 O.3   6729  MOL6729    -0.4105
  33186  H         87.5760  107.6380  277.8280 H     6729  MOL6729     0.2052
  33187  H         88.8020  108.5880  277.4410 H     6729  MOL6729     0.2052
  33188  O          3.2260   26.1560   28.7260 O.3   6730  MOL6730    -0.4105
  33189  H          3.2900   27.1340   28.6910 H     6730  MOL6730     0.2052
  33190  H          4.1460   25.7850   28.7100 H     6730  MOL6730     0.2052
  33191  O         55.6020  160.4880  298.5180 O.3   6731  MOL6731    -0.4105
  33192  H         54.6660  160.7130  298.3350 H     6731  MOL6731     0.2052
  33193  H         56.1690  161.2440  298.2140 H     6731  MOL6731     0.2052
  33194  O         50.1840   91.9350  246.3850 O.3   6732  MOL6732    -0.4105
  33195  H         50.0350   90.9670  246.3800 H     6732  MOL6732     0.2052
  33196  H         51.1530   92.1010  246.2470 H     6732  MOL6732     0.2052
  33197  O         25.7270   93.3500   23.0260 O.3   6733  MOL6733    -0.4105
  33198  H         26.1930   92.6050   23.4590 H     6733  MOL6733     0.2052
  33199  H         24.9810   92.9780   22.4870 H     6733  MOL6733     0.2052
  33200  O        153.0280   30.9770  157.6280 O.3   6734  MOL6734    -0.4105
  33201  H        152.7460   31.7720  158.1260 H     6734  MOL6734     0.2052
  33202  H        154.0160   30.9070  157.6890 H     6734  MOL6734     0.2052
  33203  O         63.2420   23.1460  140.0790 O.3   6735  MOL6735    -0.4105
  33204  H         62.4800   23.1040  140.6950 H     6735  MOL6735     0.2052
  33205  H         62.9270   22.8790  139.1770 H     6735  MOL6735     0.2052
  33206  O         13.2570  114.7150   63.0090 O.3   6736  MOL6736    -0.4105
  33207  H         12.6350  114.5710   62.2650 H     6736  MOL6736     0.2052
  33208  H         13.7390  115.5670   62.8500 H     6736  MOL6736     0.2052
  33209  O         64.0600  182.5780  296.0470 O.3   6737  MOL6737    -0.4105
  33210  H         64.4810  181.7080  296.2120 H     6737  MOL6737     0.2052
  33211  H         64.7680  183.2730  296.0650 H     6737  MOL6737     0.2052
  33212  O         77.1650  181.0210  232.7840 O.3   6738  MOL6738    -0.4105
  33213  H         77.6840  180.6060  233.5040 H     6738  MOL6738     0.2052
  33214  H         77.5480  180.7270  231.9170 H     6738  MOL6738     0.2052
  33215  O         96.2400    4.9660  273.2760 O.3   6739  MOL6739    -0.4105
  33216  H         96.3750    5.8670  273.6370 H     6739  MOL6739     0.2052
  33217  H         97.1130    4.6310  272.9420 H     6739  MOL6739     0.2052
  33218  O        109.9390  189.3400  225.4570 O.3   6740  MOL6740    -0.4105
  33219  H        109.2610  188.6860  225.7300 H     6740  MOL6740     0.2052
  33220  H        109.4720  190.1540  225.1360 H     6740  MOL6740     0.2052
  33221  O         68.3860  178.8620  184.7590 O.3   6741  MOL6741    -0.4105
  33222  H         68.4300  178.2480  183.9970 H     6741  MOL6741     0.2052
  33223  H         68.5160  179.7860  184.4210 H     6741  MOL6741     0.2052
  33224  O         37.7230  135.3780   14.1930 O.3   6742  MOL6742    -0.4105
  33225  H         36.8430  135.8080   14.1590 H     6742  MOL6742     0.2052
  33226  H         38.4140  136.0900   14.2270 H     6742  MOL6742     0.2052
  33227  O        191.6280   49.8290  271.8320 O.3   6743  MOL6743    -0.4105
  33228  H        192.3140   50.2360  271.2620 H     6743  MOL6743     0.2052
  33229  H        191.9280   48.9150  272.0750 H     6743  MOL6743     0.2052
  33230  O          1.1380  135.0860  270.0580 O.3   6744  MOL6744    -0.4105
  33231  H          2.1080  135.2210  270.0870 H     6744  MOL6744     0.2052
  33232  H          0.9590  134.1110  270.0990 H     6744  MOL6744     0.2052
  33233  O        145.7620  119.3130  259.5240 O.3   6745  MOL6745    -0.4105
  33234  H        146.1460  118.7240  260.2070 H     6745  MOL6745     0.2052
  33235  H        146.0430  118.9800  258.6330 H     6745  MOL6745     0.2052
  33236  O        122.9110  154.9130  105.3680 O.3   6746  MOL6746    -0.4105
  33237  H        122.3190  154.3090  104.8730 H     6746  MOL6746     0.2052
  33238  H        123.5340  154.3630  105.9090 H     6746  MOL6746     0.2052
  33239  O        121.0240   91.5920  183.5730 O.3   6747  MOL6747    -0.4105
  33240  H        121.3740   91.8170  182.6850 H     6747  MOL6747     0.2052
  33241  H        120.3970   90.8290  183.4740 H     6747  MOL6747     0.2052
  33242  O         42.6630   84.5160   11.3240 O.3   6748  MOL6748    -0.4105
  33243  H         43.4180   84.7260   10.7350 H     6748  MOL6748     0.2052
  33244  H         42.6710   85.1580   12.0800 H     6748  MOL6748     0.2052
  33245  O        170.1400  191.6980  201.1880 O.3   6749  MOL6749    -0.4105
  33246  H        170.8450  191.3910  201.7960 H     6749  MOL6749     0.2052
  33247  H        169.8910  192.6240  201.4430 H     6749  MOL6749     0.2052
  33248  O        192.5850  136.3490  196.7130 O.3   6750  MOL6750    -0.4105
  33249  H        192.4580  135.9800  197.6120 H     6750  MOL6750     0.2052
  33250  H        191.6930  136.4510  196.2910 H     6750  MOL6750     0.2052
  33251  O         26.7110   66.3450   16.7060 O.3   6751  MOL6751    -0.4105
  33252  H         27.6500   66.1530   16.9110 H     6751  MOL6751     0.2052
  33253  H         26.1450   65.7230   17.2340 H     6751  MOL6751     0.2052
  33254  O        199.1110  138.9370  149.5980 O.3   6752  MOL6752    -0.4105
  33255  H        198.6960  139.8220  149.6690 H     6752  MOL6752     0.2052
  33256  H        198.3910  138.2640  149.4920 H     6752  MOL6752     0.2052
  33257  O        183.5090  166.2470  273.7920 O.3   6753  MOL6753    -0.4105
  33258  H        182.6590  166.4640  273.3540 H     6753  MOL6753     0.2052
  33259  H        183.9760  167.0970  274.0010 H     6753  MOL6753     0.2052
  33260  O        174.3460    9.5250  121.4920 O.3   6754  MOL6754    -0.4105
  33261  H        174.7530   10.1810  122.0960 H     6754  MOL6754     0.2052
  33262  H        174.7680    9.6230  120.5990 H     6754  MOL6754     0.2052
  33263  O         24.0010   68.8140  128.4000 O.3   6755  MOL6755    -0.4105
  33264  H         24.0400   69.6990  128.8200 H     6755  MOL6755     0.2052
  33265  H         23.0820   68.4580  128.5110 H     6755  MOL6755     0.2052
  33266  O        181.1170   67.3480   48.6310 O.3   6756  MOL6756    -0.4105
  33267  H        180.9570   67.9450   47.8710 H     6756  MOL6756     0.2052
  33268  H        181.6460   66.5720   48.3100 H     6756  MOL6756     0.2052
  33269  O         36.2440   38.4710  131.5950 O.3   6757  MOL6757    -0.4105
  33270  H         37.2220   38.4030  131.5990 H     6757  MOL6757     0.2052
  33271  H         35.8730   37.5840  131.3480 H     6757  MOL6757     0.2052
  33272  O         11.8530  140.2000   68.8040 O.3   6758  MOL6758    -0.4105
  33273  H         11.4920  141.0880   68.6010 H     6758  MOL6758     0.2052
  33274  H         12.8270  140.2090   68.6160 H     6758  MOL6758     0.2052
  33275  O         65.7200  155.1950  275.9930 O.3   6759  MOL6759    -0.4105
  33276  H         65.3370  154.2930  275.9980 H     6759  MOL6759     0.2052
  33277  H         64.9730  155.8490  275.9910 H     6759  MOL6759     0.2052
  33278  O        116.9020   91.2270  285.0190 O.3   6760  MOL6760    -0.4105
  33279  H        117.7480   91.6780  284.8140 H     6760  MOL6760     0.2052
  33280  H        117.0970   90.2720  285.2060 H     6760  MOL6760     0.2052
  33281  O        144.8320  144.2180   61.4850 O.3   6761  MOL6761    -0.4105
  33282  H        145.5480  144.8880   61.4820 H     6761  MOL6761     0.2052
  33283  H        143.9610  144.6950   61.4860 H     6761  MOL6761     0.2052
  33284  O         94.0710  174.3290   65.8460 O.3   6762  MOL6762    -0.4105
  33285  H         93.2090  174.7350   66.0760 H     6762  MOL6762     0.2052
  33286  H         94.4410  174.8100   65.0610 H     6762  MOL6762     0.2052
  33287  O         19.6280  144.0270  288.3500 O.3   6763  MOL6763    -0.4105
  33288  H         18.7220  144.3690  288.4990 H     6763  MOL6763     0.2052
  33289  H         20.2600  144.7910  288.4000 H     6763  MOL6763     0.2052
  33290  O         80.1340  116.7880  256.0830 O.3   6764  MOL6764    -0.4105
  33291  H         79.2000  116.8130  256.3800 H     6764  MOL6764     0.2052
  33292  H         80.6030  116.0780  256.5950 H     6764  MOL6764     0.2052
  33293  O         76.0500  148.6500   78.1090 O.3   6765  MOL6765    -0.4105
  33294  H         75.2670  148.0630   78.1690 H     6765  MOL6765     0.2052
  33295  H         76.8640  148.0830   78.1070 H     6765  MOL6765     0.2052
  33296  O         49.1400  134.1710  182.6620 O.3   6766  MOL6766    -0.4105
  33297  H         48.2320  133.8220  182.5450 H     6766  MOL6766     0.2052
  33298  H         49.7710  133.4050  182.6470 H     6766  MOL6766     0.2052
  33299  O        104.2730   15.5780   23.9870 O.3   6767  MOL6767    -0.4105
  33300  H        104.8490   16.2260   24.4420 H     6767  MOL6767     0.2052
  33301  H        104.7190   14.6920   24.0160 H     6767  MOL6767     0.2052
  33302  O         64.1900  185.2470   34.1870 O.3   6768  MOL6768    -0.4105
  33303  H         64.6580  186.0330   34.5370 H     6768  MOL6768     0.2052
  33304  H         64.8060  184.4700   34.2380 H     6768  MOL6768     0.2052
  33305  O         31.0120   16.8580  202.3250 O.3   6769  MOL6769    -0.4105
  33306  H         31.1680   17.3120  203.1800 H     6769  MOL6769     0.2052
  33307  H         30.2440   17.2970  201.8760 H     6769  MOL6769     0.2052
  33308  O         20.6880    1.8790  279.8660 O.3   6770  MOL6770    -0.4105
  33309  H         20.3370    2.1110  280.7510 H     6770  MOL6770     0.2052
  33310  H         21.6640    1.7190  279.9520 H     6770  MOL6770     0.2052
  33311  O         35.4890  197.7920  122.4270 O.3   6771  MOL6771    -0.4105
  33312  H         35.0660  197.0700  121.9160 H     6771  MOL6771     0.2052
  33313  H         34.9090  198.5950  122.3670 H     6771  MOL6771     0.2052
  33314  O        117.1240  144.8160   41.3830 O.3   6772  MOL6772    -0.4105
  33315  H        116.6160  145.6380   41.2240 H     6772  MOL6772     0.2052
  33316  H        118.0730  144.9880   41.1530 H     6772  MOL6772     0.2052
  33317  O        162.9670  167.1620  282.5310 O.3   6773  MOL6773    -0.4105
  33318  H        162.0610  167.4820  282.7230 H     6773  MOL6773     0.2052
  33319  H        163.5410  167.9500  282.3450 H     6773  MOL6773     0.2052
  33320  O        164.1590  165.2640    0.0040 O.3   6774  MOL6774    -0.4105
  33321  H        163.4110  164.6570    0.1860 H     6774  MOL6774     0.2052
  33322  H        163.8110  166.1940    0.0020 H     6774  MOL6774     0.2052
  33323  O        143.4200  155.4710  244.5210 O.3   6775  MOL6775    -0.4105
  33324  H        142.7840  156.0800  244.0910 H     6775  MOL6775     0.2052
  33325  H        144.2710  155.9610  244.6640 H     6775  MOL6775     0.2052
  33326  O          2.4670  128.1560  286.3020 O.3   6776  MOL6776    -0.4105
  33327  H          2.5770  127.3180  286.7980 H     6776  MOL6776     0.2052
  33328  H          2.9490  128.8720  286.7910 H     6776  MOL6776     0.2052
  33329  O         65.9270   10.7830  298.1920 O.3   6777  MOL6777    -0.4105
  33330  H         65.4110   11.6160  298.1540 H     6777  MOL6777     0.2052
  33331  H         65.3480   10.0450  297.8680 H     6777  MOL6777     0.2052
  33332  O         76.6680  151.4480  204.4120 O.3   6778  MOL6778    -0.4105
  33333  H         76.7290  152.1120  205.1310 H     6778  MOL6778     0.2052
  33334  H         76.1880  151.8610  203.6480 H     6778  MOL6778     0.2052
  33335  O         95.1860  159.4640  165.0880 O.3   6779  MOL6779    -0.4105
  33336  H         94.9760  159.1000  165.9740 H     6779  MOL6779     0.2052
  33337  H         96.1420  159.7290  165.0800 H     6779  MOL6779     0.2052
  33338  O        124.5360  182.6650  247.4210 O.3   6780  MOL6780    -0.4105
  33339  H        123.6060  182.3960  247.2670 H     6780  MOL6780     0.2052
  33340  H        124.5330  183.5550  247.8590 H     6780  MOL6780     0.2052
  33341  O          9.2300  137.1360  252.5880 O.3   6781  MOL6781    -0.4105
  33342  H          9.2120  137.2220  253.5640 H     6781  MOL6781     0.2052
  33343  H         10.1450  136.8640  252.3170 H     6781  MOL6781     0.2052
  33344  O         21.9530  170.3920   62.9010 O.3   6782  MOL6782    -0.4105
  33345  H         21.3350  170.5920   63.6350 H     6782  MOL6782     0.2052
  33346  H         21.5050  169.7600   62.2810 H     6782  MOL6782     0.2052
  33347  O        195.3330   11.6930   74.9890 O.3   6783  MOL6783    -0.4105
  33348  H        194.9070   11.3320   74.1830 H     6783  MOL6783     0.2052
  33349  H        196.2020   11.2310   75.1140 H     6783  MOL6783     0.2052
  33350  O         44.6810  187.7200  152.5530 O.3   6784  MOL6784    -0.4105
  33351  H         44.9050  186.8780  152.1050 H     6784  MOL6784     0.2052
  33352  H         45.3510  187.8790  153.2680 H     6784  MOL6784     0.2052
  33353  O         91.3650   79.8810  192.1330 O.3   6785  MOL6785    -0.4105
  33354  H         90.6990   79.8950  192.8520 H     6785  MOL6785     0.2052
  33355  H         91.0090   80.4060  191.3690 H     6785  MOL6785     0.2052
  33356  O        196.2480  185.3460  131.7180 O.3   6786  MOL6786    -0.4105
  33357  H        195.4840  185.8260  132.1010 H     6786  MOL6786     0.2052
  33358  H        196.5840  185.8650  130.9420 H     6786  MOL6786     0.2052
  33359  O        169.7410  109.0260  289.4860 O.3   6787  MOL6787    -0.4105
  33360  H        169.6340  108.1420  289.8950 H     6787  MOL6787     0.2052
  33361  H        170.5570  109.0100  288.9220 H     6787  MOL6787     0.2052
  33362  O          3.0430   28.7220   75.8450 O.3   6788  MOL6788    -0.4105
  33363  H          2.9620   27.7610   75.6720 H     6788  MOL6788     0.2052
  33364  H          2.9520   28.8710   76.8220 H     6788  MOL6788     0.2052
  33365  O        159.8010  102.8990  264.5780 O.3   6789  MOL6789    -0.4105
  33366  H        159.6370  102.6130  263.6550 H     6789  MOL6789     0.2052
  33367  H        158.9410  103.2110  264.9630 H     6789  MOL6789     0.2052
  33368  O        181.6560   96.6930   98.6000 O.3   6790  MOL6790    -0.4105
  33369  H        180.7070   96.9400   98.5800 H     6790  MOL6790     0.2052
  33370  H        182.0120   96.9010   99.5020 H     6790  MOL6790     0.2052
  33371  O         96.5580  193.5550  238.0340 O.3   6791  MOL6791    -0.4105
  33372  H         97.1560  192.8480  238.3540 H     6791  MOL6791     0.2052
  33373  H         95.9280  193.1560  237.3790 H     6791  MOL6791     0.2052
  33374  O         81.1860  172.6970  274.0260 O.3   6792  MOL6792    -0.4105
  33375  H         80.4380  173.2850  273.7910 H     6792  MOL6792     0.2052
  33376  H         80.8880  171.7560  273.9180 H     6792  MOL6792     0.2052
  33377  O        125.4410   38.9190  119.3390 O.3   6793  MOL6793    -0.4105
  33378  H        125.5780   39.8870  119.4070 H     6793  MOL6793     0.2052
  33379  H        124.4640   38.7450  119.3130 H     6793  MOL6793     0.2052
  33380  O         94.3440  152.9650    8.2940 O.3   6794  MOL6794    -0.4105
  33381  H         94.3550  153.7970    8.8120 H     6794  MOL6794     0.2052
  33382  H         95.2750  152.7550    8.0240 H     6794  MOL6794     0.2052
  33383  O         25.1540  145.0090  154.9520 O.3   6795  MOL6795    -0.4105
  33384  H         24.1870  144.8520  154.9840 H     6795  MOL6795     0.2052
  33385  H         25.6070  144.1320  154.8440 H     6795  MOL6795     0.2052
  33386  O         72.8970  111.7090  233.1000 O.3   6796  MOL6796    -0.4105
  33387  H         73.3680  110.9110  233.4200 H     6796  MOL6796     0.2052
  33388  H         73.5550  112.4480  233.0240 H     6796  MOL6796     0.2052
  33389  O        110.5790  179.3610    7.8000 O.3   6797  MOL6797    -0.4105
  33390  H        110.8650  178.4250    7.8310 H     6797  MOL6797     0.2052
  33391  H        109.6260  179.4040    8.0740 H     6797  MOL6797     0.2052
  33392  O         42.7590  158.4200  280.6770 O.3   6798  MOL6798    -0.4105
  33393  H         42.6370  157.4470  280.7020 H     6798  MOL6798     0.2052
  33394  H         43.7330  158.6110  280.6860 H     6798  MOL6798     0.2052
  33395  O        118.4820   39.5620    2.6130 O.3   6799  MOL6799    -0.4105
  33396  H        118.0840   40.1990    3.2430 H     6799  MOL6799     0.2052
  33397  H        117.7500   39.1480    2.0860 H     6799  MOL6799     0.2052
  33398  O          7.1670   38.8350  109.5650 O.3   6800  MOL6800    -0.4105
  33399  H          7.9630   39.1760  109.1070 H     6800  MOL6800     0.2052
  33400  H          7.2760   37.8560  109.6910 H     6800  MOL6800     0.2052
  33401  O         69.5420  157.7240  200.9870 O.3   6801  MOL6801    -0.4105
  33402  H         69.2730  156.8210  201.2590 H     6801  MOL6801     0.2052
  33403  H         70.0200  157.6580  200.1210 H     6801  MOL6801     0.2052
  33404  O        145.5040   22.1480  162.1240 O.3   6802  MOL6802    -0.4105
  33405  H        146.3710   22.0170  162.5620 H     6802  MOL6802     0.2052
  33406  H        145.6310   22.0330  161.1460 H     6802  MOL6802     0.2052
  33407  O        161.5090  126.6740  228.1970 O.3   6803  MOL6803    -0.4105
  33408  H        160.9130  127.3310  227.7800 H     6803  MOL6803     0.2052
  33409  H        162.4420  126.9960  228.0990 H     6803  MOL6803     0.2052
  33410  O         10.2890   35.6990  288.4870 O.3   6804  MOL6804    -0.4105
  33411  H          9.5560   36.3500  288.5030 H     6804  MOL6804     0.2052
  33412  H         11.0990   36.1530  288.1370 H     6804  MOL6804     0.2052
  33413  O        153.2360   15.5230   82.9760 O.3   6805  MOL6805    -0.4105
  33414  H        152.7860   16.3700   83.1800 H     6805  MOL6805     0.2052
  33415  H        154.2140   15.6870   82.9600 H     6805  MOL6805     0.2052
  33416  O        107.0770  120.6160    7.2260 O.3   6806  MOL6806    -0.4105
  33417  H        106.8870  119.7380    6.8360 H     6806  MOL6806     0.2052
  33418  H        107.8840  120.5340    7.7980 H     6806  MOL6806     0.2052
  33419  O         30.1300  135.8540  127.4840 O.3   6807  MOL6807    -0.4105
  33420  H         30.5140  135.0320  127.1140 H     6807  MOL6807     0.2052
  33421  H         30.8570  136.3620  127.9290 H     6807  MOL6807     0.2052
  33422  O         70.1630   82.8100  197.1180 O.3   6808  MOL6808    -0.4105
  33423  H         70.3980   81.8720  196.9640 H     6808  MOL6808     0.2052
  33424  H         69.1770   82.8700  197.2210 H     6808  MOL6808     0.2052
  33425  O        111.7580  172.0340  101.1220 O.3   6809  MOL6809    -0.4105
  33426  H        110.8450  171.6830  101.0710 H     6809  MOL6809     0.2052
  33427  H        111.7100  173.0250  101.1350 H     6809  MOL6809     0.2052
  33428  O         55.7190  148.4920   52.2030 O.3   6810  MOL6810    -0.4105
  33429  H         56.6820  148.3820   52.3500 H     6810  MOL6810     0.2052
  33430  H         55.5770  149.3310   51.6940 H     6810  MOL6810     0.2052
  33431  O        116.3250   50.0040  120.8850 O.3   6811  MOL6811    -0.4105
  33432  H        115.6570   49.3620  121.2060 H     6811  MOL6811     0.2052
  33433  H        117.1950   49.7830  121.3070 H     6811  MOL6811     0.2052
  33434  O        113.9760  189.3140  274.9510 O.3   6812  MOL6812    -0.4105
  33435  H        113.0150  189.5070  274.9760 H     6812  MOL6812     0.2052
  33436  H        114.4420  190.1070  274.5770 H     6812  MOL6812     0.2052
  33437  O         40.3380  105.1670  160.3140 O.3   6813  MOL6813    -0.4105
  33438  H         39.4460  105.5680  160.2530 H     6813  MOL6813     0.2052
  33439  H         41.0110  105.8900  160.2130 H     6813  MOL6813     0.2052
  33440  O        184.3900   19.0060  117.3840 O.3   6814  MOL6814    -0.4105
  33441  H        184.2930   19.9000  117.7720 H     6814  MOL6814     0.2052
  33442  H        183.6850   18.4220  117.7690 H     6814  MOL6814     0.2052
  33443  O        126.9110   20.2880  101.9850 O.3   6815  MOL6815    -0.4105
  33444  H        126.6970   19.7900  101.1690 H     6815  MOL6815     0.2052
  33445  H        126.0950   20.7730  102.2760 H     6815  MOL6815     0.2052
  33446  O        158.3210  153.7330  176.7600 O.3   6816  MOL6816    -0.4105
  33447  H        157.9890  154.6550  176.7690 H     6816  MOL6816     0.2052
  33448  H        157.6350  153.1520  177.1810 H     6816  MOL6816     0.2052
  33449  O         63.0630  149.7610    2.9760 O.3   6817  MOL6817    -0.4105
  33450  H         63.3800  150.6650    2.7740 H     6817  MOL6817     0.2052
  33451  H         63.6910  149.1120    2.5640 H     6817  MOL6817     0.2052
  33452  O        198.7460  159.4950  172.5180 O.3   6818  MOL6818    -0.4105
  33453  H        198.6310  159.7410  171.5760 H     6818  MOL6818     0.2052
  33454  H        199.1730  158.6000  172.5560 H     6818  MOL6818     0.2052
  33455  O         96.2390   89.0280  174.9040 O.3   6819  MOL6819    -0.4105
  33456  H         96.9530   88.3990  174.6670 H     6819  MOL6819     0.2052
  33457  H         96.6500   89.9160  175.0700 H     6819  MOL6819     0.2052
  33458  O        152.8580  185.0380  162.6920 O.3   6820  MOL6820    -0.4105
  33459  H        152.0410  184.5060  162.5890 H     6820  MOL6820     0.2052
  33460  H        153.6320  184.4170  162.7140 H     6820  MOL6820     0.2052
  33461  O        127.8190   12.5410  232.9790 O.3   6821  MOL6821    -0.4105
  33462  H        127.9010   13.5150  233.0500 H     6821  MOL6821     0.2052
  33463  H        126.8740   12.2950  233.1520 H     6821  MOL6821     0.2052
  33464  O         56.2140  179.0460   60.4330 O.3   6822  MOL6822    -0.4105
  33465  H         56.4770  178.1100   60.5600 H     6822  MOL6822     0.2052
  33466  H         55.5090  179.0780   59.7350 H     6822  MOL6822     0.2052
  33467  O        186.6700  186.5910  253.2250 O.3   6823  MOL6823    -0.4105
  33468  H        187.2160  185.9140  253.6770 H     6823  MOL6823     0.2052
  33469  H        187.2760  187.2980  252.8800 H     6823  MOL6823     0.2052
  33470  O        164.1380   60.0350  144.7310 O.3   6824  MOL6824    -0.4105
  33471  H        164.0760   60.8470  145.2760 H     6824  MOL6824     0.2052
  33472  H        164.6910   60.2390  143.9320 H     6824  MOL6824     0.2052
  33473  O         49.7800   81.8420  121.1860 O.3   6825  MOL6825    -0.4105
  33474  H         49.1230   81.1210  121.0960 H     6825  MOL6825     0.2052
  33475  H         49.3080   82.6550  121.5020 H     6825  MOL6825     0.2052
  33476  O         53.6740  144.7860  235.1510 O.3   6826  MOL6826    -0.4105
  33477  H         54.2600  145.4650  234.7550 H     6826  MOL6826     0.2052
  33478  H         53.8150  143.9330  234.6640 H     6826  MOL6826     0.2052
  33479  O         80.1100   22.5830  120.7010 O.3   6827  MOL6827    -0.4105
  33480  H         79.9100   22.1680  121.5660 H     6827  MOL6827     0.2052
  33481  H         79.6720   23.4730  120.6750 H     6827  MOL6827     0.2052
  33482  O        134.2730   25.5370   95.2500 O.3   6828  MOL6828    -0.4105
  33483  H        134.4970   25.2040   94.3560 H     6828  MOL6828     0.2052
  33484  H        134.2100   24.7600   95.8640 H     6828  MOL6828     0.2052
  33485  O         96.0040  199.1060    3.9980 O.3   6829  MOL6829    -0.4105
  33486  H         95.0650  198.8380    3.9230 H     6829  MOL6829     0.2052
  33487  H         96.1080  199.9960    3.5710 H     6829  MOL6829     0.2052
  33488  O         62.2690   28.3070  278.9230 O.3   6830  MOL6830    -0.4105
  33489  H         62.2720   28.1500  277.9560 H     6830  MOL6830     0.2052
  33490  H         63.0660   28.8520  279.1520 H     6830  MOL6830     0.2052
  33491  O        164.0180   54.9240  286.6250 O.3   6831  MOL6831    -0.4105
  33492  H        163.7630   55.8700  286.6280 H     6831  MOL6831     0.2052
  33493  H        163.1990   54.3810  286.7660 H     6831  MOL6831     0.2052
  33494  O         93.4840  118.8660   20.9360 O.3   6832  MOL6832    -0.4105
  33495  H         93.6810  119.7950   20.6910 H     6832  MOL6832     0.2052
  33496  H         94.1760  118.2840   20.5270 H     6832  MOL6832     0.2052
  33497  O        117.5180  165.2900  219.0380 O.3   6833  MOL6833    -0.4105
  33498  H        118.4490  165.0490  219.2270 H     6833  MOL6833     0.2052
  33499  H        117.2470  164.8450  218.1940 H     6833  MOL6833     0.2052
  33500  O         44.7200  191.2480  163.4180 O.3   6834  MOL6834    -0.4105
  33501  H         44.5940  192.2020  163.6040 H     6834  MOL6834     0.2052
  33502  H         43.8470  190.8690  163.1360 H     6834  MOL6834     0.2052
  33503  O          6.0570   35.3470  259.7160 O.3   6835  MOL6835    -0.4105
  33504  H          6.9220   35.3830  260.1760 H     6835  MOL6835     0.2052
  33505  H          5.9380   36.1940  259.2130 H     6835  MOL6835     0.2052
  33506  O         67.8790  139.3430   59.4940 O.3   6836  MOL6836    -0.4105
  33507  H         67.1110  139.3570   60.1030 H     6836  MOL6836     0.2052
  33508  H         68.1350  138.3970   59.3380 H     6836  MOL6836     0.2052
  33509  O         37.9760   17.2580  260.5210 O.3   6837  MOL6837    -0.4105
  33510  H         37.7260   18.2050  260.4840 H     6837  MOL6837     0.2052
  33511  H         37.8170   16.9310  261.4450 H     6837  MOL6837     0.2052
  33512  O         58.2770  125.5150  214.7050 O.3   6838  MOL6838    -0.4105
  33513  H         58.5070  124.8740  214.0010 H     6838  MOL6838     0.2052
  33514  H         57.9040  125.0110  215.4740 H     6838  MOL6838     0.2052
  33515  O         86.2720  174.1650  249.6680 O.3   6839  MOL6839    -0.4105
  33516  H         86.9960  174.8180  249.7610 H     6839  MOL6839     0.2052
  33517  H         86.6650  173.2560  249.7200 H     6839  MOL6839     0.2052
  33518  O        129.4540  198.2540  275.6280 O.3   6840  MOL6840    -0.4105
  33519  H        129.5250  199.2230  275.7550 H     6840  MOL6840     0.2052
  33520  H        128.5390  198.0500  275.3010 H     6840  MOL6840     0.2052
  33521  O         79.9470   20.3770   17.8100 O.3   6841  MOL6841    -0.4105
  33522  H         79.9980   21.3390   17.9890 H     6841  MOL6841     0.2052
  33523  H         79.6290   20.2510   16.8790 H     6841  MOL6841     0.2052
  33524  O         88.5250  109.9950   50.9470 O.3   6842  MOL6842    -0.4105
  33525  H         88.6290  110.8900   51.3320 H     6842  MOL6842     0.2052
  33526  H         87.5560  109.7860   50.9040 H     6842  MOL6842     0.2052
  33527  O        105.2730  177.2810    8.7430 O.3   6843  MOL6843    -0.4105
  33528  H        104.9380  176.9630    9.6070 H     6843  MOL6843     0.2052
  33529  H        104.7090  178.0450    8.4530 H     6843  MOL6843     0.2052
  33530  O        166.7860   56.8740  228.8360 O.3   6844  MOL6844    -0.4105
  33531  H        167.5750   57.3920  229.0990 H     6844  MOL6844     0.2052
  33532  H        166.0200   57.4980  228.7490 H     6844  MOL6844     0.2052
  33533  O        148.8860   18.9830  148.3850 O.3   6845  MOL6845    -0.4105
  33534  H        149.2360   19.5050  149.1380 H     6845  MOL6845     0.2052
  33535  H        148.3500   19.5890  147.8110 H     6845  MOL6845     0.2052
  33536  O        112.3210  172.9860  272.5300 O.3   6846  MOL6846    -0.4105
  33537  H        112.4120  172.0210  272.6760 H     6846  MOL6846     0.2052
  33538  H        111.9980  173.3980  273.3730 H     6846  MOL6846     0.2052
  33539  O         23.7510   94.5250  288.2170 O.3   6847  MOL6847    -0.4105
  33540  H         24.1160   94.1520  287.3880 H     6847  MOL6847     0.2052
  33541  H         23.2010   95.3180  287.9860 H     6847  MOL6847     0.2052
  33542  O        100.2800   86.9660   15.9620 O.3   6848  MOL6848    -0.4105
  33543  H        101.2140   87.2430   15.8520 H     6848  MOL6848     0.2052
  33544  H         99.7800   87.7170   16.3750 H     6848  MOL6848     0.2052
  33545  O          4.1390   70.2930   15.7470 O.3   6849  MOL6849    -0.4105
  33546  H          3.4840   69.8330   16.3120 H     6849  MOL6849     0.2052
  33547  H          5.0430   70.1290   16.1230 H     6849  MOL6849     0.2052
  33548  O        166.1680  153.4010   73.0690 O.3   6850  MOL6850    -0.4105
  33549  H        165.3360  153.9120   73.1510 H     6850  MOL6850     0.2052
  33550  H        166.0560  152.5440   73.5560 H     6850  MOL6850     0.2052
  33551  O         55.1550  157.0640   77.7450 O.3   6851  MOL6851    -0.4105
  33552  H         56.1080  156.8750   77.6220 H     6851  MOL6851     0.2052
  33553  H         54.7060  156.2260   78.0310 H     6851  MOL6851     0.2052
  33554  O        170.3850  121.5570  113.2150 O.3   6852  MOL6852    -0.4105
  33555  H        170.4910  122.0820  112.3940 H     6852  MOL6852     0.2052
  33556  H        170.9710  121.9500  113.9130 H     6852  MOL6852     0.2052
  33557  O        135.7090  157.5430  229.6850 O.3   6853  MOL6853    -0.4105
  33558  H        134.9530  158.0400  229.3080 H     6853  MOL6853     0.2052
  33559  H        135.4340  156.5950  229.7920 H     6853  MOL6853     0.2052
  33560  O        175.5970   32.3910   73.5830 O.3   6854  MOL6854    -0.4105
  33561  H        175.0000   32.6780   74.3060 H     6854  MOL6854     0.2052
  33562  H        176.4540   32.8820   73.6760 H     6854  MOL6854     0.2052
  33563  O        189.1120  187.2550  287.2050 O.3   6855  MOL6855    -0.4105
  33564  H        188.9160  186.3210  286.9830 H     6855  MOL6855     0.2052
  33565  H        188.2570  187.7070  287.4280 H     6855  MOL6855     0.2052
  33566  O        107.0330  163.8920  185.9790 O.3   6856  MOL6856    -0.4105
  33567  H        106.5000  163.0780  185.8590 H     6856  MOL6856     0.2052
  33568  H        106.4240  164.6230  186.2620 H     6856  MOL6856     0.2052
  33569  O        154.0580   89.5410  152.1400 O.3   6857  MOL6857    -0.4105
  33570  H        154.1980   88.7920  151.5250 H     6857  MOL6857     0.2052
  33571  H        153.4220   90.1760  151.7180 H     6857  MOL6857     0.2052
  33572  O         53.1700  158.6230  204.5100 O.3   6858  MOL6858    -0.4105
  33573  H         52.2050  158.4810  204.6030 H     6858  MOL6858     0.2052
  33574  H         53.3480  159.5970  204.5760 H     6858  MOL6858     0.2052
  33575  O         86.1070  193.6300  100.7420 O.3   6859  MOL6859    -0.4105
  33576  H         85.3090  194.1850  100.6180 H     6859  MOL6859     0.2052
  33577  H         85.8110  192.7090  100.9640 H     6859  MOL6859     0.2052
  33578  O        156.9700  105.9230   69.5750 O.3   6860  MOL6860    -0.4105
  33579  H        156.9270  106.6620   70.2180 H     6860  MOL6860     0.2052
  33580  H        156.2680  106.0670   68.8890 H     6860  MOL6860     0.2052
  33581  O         17.2870  169.1980  288.8780 O.3   6861  MOL6861    -0.4105
  33582  H         17.0590  168.2820  288.6130 H     6861  MOL6861     0.2052
  33583  H         18.2610  169.2340  289.0630 H     6861  MOL6861     0.2052
  33584  O        188.8070  155.0820  288.8180 O.3   6862  MOL6862    -0.4105
  33585  H        188.1850  155.8310  288.9360 H     6862  MOL6862     0.2052
  33586  H        189.1490  155.1070  287.8870 H     6862  MOL6862     0.2052
  33587  O         53.1690  195.4090  278.5140 O.3   6863  MOL6863    -0.4105
  33588  H         53.3470  194.8930  277.7000 H     6863  MOL6863     0.2052
  33589  H         53.0240  196.3560  278.2550 H     6863  MOL6863     0.2052
  33590  O        145.9390   25.9950  116.6320 O.3   6864  MOL6864    -0.4105
  33591  H        145.4620   26.6590  116.0930 H     6864  MOL6864     0.2052
  33592  H        146.3080   26.4510  117.4320 H     6864  MOL6864     0.2052
  33593  O        115.4280  134.5300   56.0200 O.3   6865  MOL6865    -0.4105
  33594  H        114.7520  135.0330   55.5190 H     6865  MOL6865     0.2052
  33595  H        115.7860  133.8180   55.4290 H     6865  MOL6865     0.2052
  33596  O        144.2260  134.9640  249.4640 O.3   6866  MOL6866    -0.4105
  33597  H        144.1630  133.9860  249.4850 H     6866  MOL6866     0.2052
  33598  H        145.1860  135.2120  249.4130 H     6866  MOL6866     0.2052
  33599  O        185.0490  126.6420  188.4790 O.3   6867  MOL6867    -0.4105
  33600  H        184.8960  125.6940  188.6710 H     6867  MOL6867     0.2052
  33601  H        186.0260  126.8120  188.5120 H     6867  MOL6867     0.2052
  33602  O         82.9310   59.9710   18.6400 O.3   6868  MOL6868    -0.4105
  33603  H         82.4060   60.1350   17.8290 H     6868  MOL6868     0.2052
  33604  H         82.4310   60.3420   19.4130 H     6868  MOL6868     0.2052
  33605  O        182.3670   59.3460  156.9100 O.3   6869  MOL6869    -0.4105
  33606  H        183.1710   59.9080  156.8990 H     6869  MOL6869     0.2052
  33607  H        182.1890   59.0770  157.8490 H     6869  MOL6869     0.2052
  33608  O        178.8120   59.9150  297.7860 O.3   6870  MOL6870    -0.4105
  33609  H        179.6530   59.4200  297.6970 H     6870  MOL6870     0.2052
  33610  H        178.0660   59.2610  297.7890 H     6870  MOL6870     0.2052
  33611  O          8.3240  175.8700  273.2650 O.3   6871  MOL6871    -0.4105
  33612  H          7.9340  176.6430  272.8040 H     6871  MOL6871     0.2052
  33613  H          8.7740  175.3000  272.5890 H     6871  MOL6871     0.2052
  33614  O        116.3280   15.9610   58.9180 O.3   6872  MOL6872    -0.4105
  33615  H        115.4640   15.9320   59.3790 H     6872  MOL6872     0.2052
  33616  H        116.7730   15.0820   59.0360 H     6872  MOL6872     0.2052
  33617  O        163.1860   17.3040  170.4790 O.3   6873  MOL6873    -0.4105
  33618  H        163.9260   17.1780  169.8480 H     6873  MOL6873     0.2052
  33619  H        163.4220   18.0510  171.0880 H     6873  MOL6873     0.2052
  33620  O         32.5510   69.7870   78.5250 O.3   6874  MOL6874    -0.4105
  33621  H         33.3200   69.3300   78.1240 H     6874  MOL6874     0.2052
  33622  H         32.8770   70.6110   78.9710 H     6874  MOL6874     0.2052
  33623  O         60.2980   82.2930  164.5230 O.3   6875  MOL6875    -0.4105
  33624  H         59.9950   81.3850  164.7330 H     6875  MOL6875     0.2052
  33625  H         60.8170   82.2590  163.6770 H     6875  MOL6875     0.2052
  33626  O        165.3280   95.1410  136.3780 O.3   6876  MOL6876    -0.4105
  33627  H        165.0660   94.2090  136.2230 H     6876  MOL6876     0.2052
  33628  H        164.5370   95.6330  136.7200 H     6876  MOL6876     0.2052
  33629  O        161.3980   84.6060  147.3620 O.3   6877  MOL6877    -0.4105
  33630  H        161.4510   83.7420  147.8230 H     6877  MOL6877     0.2052
  33631  H        160.9980   85.2660  147.9860 H     6877  MOL6877     0.2052
  33632  O        176.8520    6.7220  236.2360 O.3   6878  MOL6878    -0.4105
  33633  H        176.2020    6.2530  236.8000 H     6878  MOL6878     0.2052
  33634  H        177.4010    7.3090  236.8180 H     6878  MOL6878     0.2052
  33635  O         83.2890  117.1520  275.8730 O.3   6879  MOL6879    -0.4105
  33636  H         84.2300  117.1410  276.1460 H     6879  MOL6879     0.2052
  33637  H         82.9810  116.2120  275.7870 H     6879  MOL6879     0.2052
  33638  O        162.3380    1.4880  190.2620 O.3   6880  MOL6880    -0.4105
  33639  H        162.6560    1.2910  189.3570 H     6880  MOL6880     0.2052
  33640  H        162.6170    2.4110  190.4960 H     6880  MOL6880     0.2052
  33641  O        107.9570  118.0790  168.8100 O.3   6881  MOL6881    -0.4105
  33642  H        107.5210  117.3140  168.3800 H     6881  MOL6881     0.2052
  33643  H        108.9390  117.9420  168.7650 H     6881  MOL6881     0.2052
  33644  O        155.9280  121.3510  114.1390 O.3   6882  MOL6882    -0.4105
  33645  H        156.6290  122.0080  114.3360 H     6882  MOL6882     0.2052
  33646  H        155.4420  121.1540  114.9820 H     6882  MOL6882     0.2052
  33647  O          0.7090  102.8410  226.6930 O.3   6883  MOL6883    -0.4105
  33648  H          0.2360  102.0030  226.5100 H     6883  MOL6883     0.2052
  33649  H          1.4080  102.6610  227.3740 H     6883  MOL6883     0.2052
  33650  O        145.0340   94.4750   69.2040 O.3   6884  MOL6884    -0.4105
  33651  H        144.1840   94.5850   68.7280 H     6884  MOL6884     0.2052
  33652  H        145.1920   93.5050   69.3370 H     6884  MOL6884     0.2052
  33653  O          6.5920    1.6090   22.3330 O.3   6885  MOL6885    -0.4105
  33654  H          6.1090    2.0400   23.0680 H     6885  MOL6885     0.2052
  33655  H          6.0600    0.8290   22.0270 H     6885  MOL6885     0.2052
  33656  O         25.0970  115.0380  106.4010 O.3   6886  MOL6886    -0.4105
  33657  H         26.0520  115.2550  106.4010 H     6886  MOL6886     0.2052
  33658  H         24.9950  114.0840  106.1470 H     6886  MOL6886     0.2052
  33659  O         30.5690   63.5480   68.3120 O.3   6887  MOL6887    -0.4105
  33660  H         31.5190   63.3810   68.1360 H     6887  MOL6887     0.2052
  33661  H         30.1530   63.8840   67.4770 H     6887  MOL6887     0.2052
  33662  O         97.4700  173.6960  153.7650 O.3   6888  MOL6888    -0.4105
  33663  H         98.1760  174.1900  153.2960 H     6888  MOL6888     0.2052
  33664  H         97.8980  172.9890  154.3140 H     6888  MOL6888     0.2052
  33665  O         82.2090  106.6820   70.5940 O.3   6889  MOL6889    -0.4105
  33666  H         81.2910  107.0170   70.5230 H     6889  MOL6889     0.2052
  33667  H         82.8280  107.4510   70.4930 H     6889  MOL6889     0.2052
  33668  O         31.1190   65.6600  206.5340 O.3   6890  MOL6890    -0.4105
  33669  H         30.2900   65.3550  206.1110 H     6890  MOL6890     0.2052
  33670  H         31.8010   64.9470  206.4310 H     6890  MOL6890     0.2052
  33671  O        105.2410  169.3950  179.6220 O.3   6891  MOL6891    -0.4105
  33672  H        104.8620  169.0090  178.8050 H     6891  MOL6891     0.2052
  33673  H        106.1470  169.7400  179.4120 H     6891  MOL6891     0.2052
  33674  O         11.6360   78.0740  121.5170 O.3   6892  MOL6892    -0.4105
  33675  H         11.0230   77.3780  121.1990 H     6892  MOL6892     0.2052
  33676  H         11.2780   78.4370  122.3680 H     6892  MOL6892     0.2052
  33677  O        172.2320   47.2900  251.4180 O.3   6893  MOL6893    -0.4105
  33678  H        171.7540   46.4670  251.6530 H     6893  MOL6893     0.2052
  33679  H        171.7580   48.0550  251.8350 H     6893  MOL6893     0.2052
  33680  O          9.3270  129.3500  127.4390 O.3   6894  MOL6894    -0.4105
  33681  H          9.3970  128.5100  127.9380 H     6894  MOL6894     0.2052
  33682  H          9.2220  129.1320  126.4770 H     6894  MOL6894     0.2052
  33683  O         65.4120  156.1490  134.3550 O.3   6895  MOL6895    -0.4105
  33684  H         65.8550  156.9390  133.9800 H     6895  MOL6895     0.2052
  33685  H         65.2530  156.3120  135.3210 H     6895  MOL6895     0.2052
  33686  O        103.6380   37.7140    4.6160 O.3   6896  MOL6896    -0.4105
  33687  H        103.9750   37.6280    3.7000 H     6896  MOL6896     0.2052
  33688  H        103.4410   36.8050    4.9610 H     6896  MOL6896     0.2052
  33689  O        170.1280   98.1350   61.2880 O.3   6897  MOL6897    -0.4105
  33690  H        170.0830   98.1810   60.3100 H     6897  MOL6897     0.2052
  33691  H        169.8510   97.2250   61.5690 H     6897  MOL6897     0.2052
  33692  O        115.2590  180.7620   79.6420 O.3   6898  MOL6898    -0.4105
  33693  H        116.2260  180.9260   79.6400 H     6898  MOL6898     0.2052
  33694  H        114.7950  181.6390   79.6430 H     6898  MOL6898     0.2052
  33695  O        129.6000  142.6330   66.1410 O.3   6899  MOL6899    -0.4105
  33696  H        130.4110  142.0830   66.1210 H     6899  MOL6899     0.2052
  33697  H        129.7390  143.3670   66.7940 H     6899  MOL6899     0.2052
  33698  O        174.0290   96.9230  181.3630 O.3   6900  MOL6900    -0.4105
  33699  H        173.7130   97.8130  181.6260 H     6900  MOL6900     0.2052
  33700  H        173.3710   96.2530  181.6830 H     6900  MOL6900     0.2052
  33701  O        195.9590   31.9630  165.2380 O.3   6901  MOL6901    -0.4105
  33702  H        194.9980   31.8550  165.0820 H     6901  MOL6901     0.2052
  33703  H        196.4310   31.2040  164.8060 H     6901  MOL6901     0.2052
  33704  O         71.4240   71.6850  175.5550 O.3   6902  MOL6902    -0.4105
  33705  H         70.8840   72.4890  175.4060 H     6902  MOL6902     0.2052
  33706  H         72.2350   71.9450  176.0640 H     6902  MOL6902     0.2052
  33707  O        117.7680  114.3810   41.7580 O.3   6903  MOL6903    -0.4105
  33708  H        116.9020  114.8400   41.7660 H     6903  MOL6903     0.2052
  33709  H        118.4840  115.0680   41.7500 H     6903  MOL6903     0.2052
  33710  O        100.2220   18.7650  277.7140 O.3   6904  MOL6904    -0.4105
  33711  H        100.6520   18.5020  276.8740 H     6904  MOL6904     0.2052
  33712  H        100.4400   19.7170  277.8900 H     6904  MOL6904     0.2052
  33713  O          2.3950   29.0050  173.0590 O.3   6905  MOL6905    -0.4105
  33714  H          1.6240   29.2100  172.4890 H     6905  MOL6905     0.2052
  33715  H          3.1750   28.8270  172.4730 H     6905  MOL6905     0.2052
  33716  O         41.9720  160.5070  184.1980 O.3   6906  MOL6906    -0.4105
  33717  H         42.1170  159.7610  183.5800 H     6906  MOL6906     0.2052
  33718  H         42.7000  161.1680  184.0630 H     6906  MOL6906     0.2052
  33719  O        104.2270   48.4510  259.7700 O.3   6907  MOL6907    -0.4105
  33720  H        105.0850   48.4810  259.2970 H     6907  MOL6907     0.2052
  33721  H        103.7000   49.2490  259.5070 H     6907  MOL6907     0.2052
  33722  O        114.4300  190.0320  199.1530 O.3   6908  MOL6908    -0.4105
  33723  H        114.8170  189.1920  198.8290 H     6908  MOL6908     0.2052
  33724  H        115.1190  190.7420  199.0710 H     6908  MOL6908     0.2052
  33725  O        109.3240   42.6570  147.5290 O.3   6909  MOL6909    -0.4105
  33726  H        110.0050   42.1960  148.0620 H     6909  MOL6909     0.2052
  33727  H        108.4810   42.6770  148.0520 H     6909  MOL6909     0.2052
  33728  O         12.3100   57.8290  130.4190 O.3   6910  MOL6910    -0.4105
  33729  H         11.9570   56.9240  130.2870 H     6910  MOL6910     0.2052
  33730  H         11.8510   58.2310  131.2020 H     6910  MOL6910     0.2052
  33731  O         55.5300  192.0920  280.2100 O.3   6911  MOL6911    -0.4105
  33732  H         55.5870  193.0700  280.1820 H     6911  MOL6911     0.2052
  33733  H         54.5710  191.8370  280.1990 H     6911  MOL6911     0.2052
  33734  O          2.2740  167.3370  134.8200 O.3   6912  MOL6912    -0.4105
  33735  H          2.0890  167.0140  135.7260 H     6912  MOL6912     0.2052
  33736  H          1.4070  167.4790  134.3580 H     6912  MOL6912     0.2052
  33737  O        165.7170  197.6610   20.1290 O.3   6913  MOL6913    -0.4105
  33738  H        165.0420  197.5160   20.8240 H     6913  MOL6913     0.2052
  33739  H        165.2690  197.6060   19.2450 H     6913  MOL6913     0.2052
  33740  O         25.6530   85.2900   26.9100 O.3   6914  MOL6914    -0.4105
  33741  H         25.9890   84.6500   27.5710 H     6914  MOL6914     0.2052
  33742  H         25.8620   86.2060   27.2310 H     6914  MOL6914     0.2052
  33743  O         68.8810  121.7970  245.0080 O.3   6915  MOL6915    -0.4105
  33744  H         68.4160  120.9450  245.1410 H     6915  MOL6915     0.2052
  33745  H         69.8130  121.6020  244.7290 H     6915  MOL6915     0.2052
  33746  O         80.8820  171.3740  121.5140 O.3   6916  MOL6916    -0.4105
  33747  H         81.5070  172.1280  121.5510 H     6916  MOL6916     0.2052
  33748  H         79.9810  171.7050  121.7670 H     6916  MOL6916     0.2052
  33749  O         64.9900  155.9350  174.8660 O.3   6917  MOL6917    -0.4105
  33750  H         65.9320  156.0710  175.1010 H     6917  MOL6917     0.2052
  33751  H         64.6020  156.8140  174.6170 H     6917  MOL6917     0.2052
  33752  O         21.5700   87.9980   46.0930 O.3   6918  MOL6918    -0.4105
  33753  H         20.6460   88.2430   46.3110 H     6918  MOL6918     0.2052
  33754  H         21.6940   87.0370   46.3040 H     6918  MOL6918     0.2052
  33755  O        188.0240  139.9670  244.8890 O.3   6919  MOL6919    -0.4105
  33756  H        188.5900  139.1770  245.0150 H     6919  MOL6919     0.2052
  33757  H        187.2590  139.9050  245.5170 H     6919  MOL6919     0.2052
  33758  O        102.4290  146.9010  240.5760 O.3   6920  MOL6920    -0.4105
  33759  H        102.8470  147.0530  239.7030 H     6920  MOL6920     0.2052
  33760  H        102.4430  145.9260  240.7620 H     6920  MOL6920     0.2052
  33761  O        159.2600  166.3820  156.2410 O.3   6921  MOL6921    -0.4105
  33762  H        159.8150  165.5750  156.2680 H     6921  MOL6921     0.2052
  33763  H        159.8510  167.1590  156.0600 H     6921  MOL6921     0.2052
  33764  O        147.8310   35.3440  173.8470 O.3   6922  MOL6922    -0.4105
  33765  H        147.0250   34.8890  174.1680 H     6922  MOL6922     0.2052
  33766  H        148.2740   34.7580  173.1800 H     6922  MOL6922     0.2052
  33767  O        180.4850  175.2100  246.7890 O.3   6923  MOL6923    -0.4105
  33768  H        179.5260  175.1630  246.5920 H     6923  MOL6923     0.2052
  33769  H        180.6920  176.1270  247.1060 H     6923  MOL6923     0.2052
  33770  O         78.1020  130.2630  192.1110 O.3   6924  MOL6924    -0.4105
  33771  H         77.3030  130.2520  192.6790 H     6924  MOL6924     0.2052
  33772  H         78.0040  130.9980  191.4510 H     6924  MOL6924     0.2052
  33773  O         35.8880  194.5990   46.6690 O.3   6925  MOL6925    -0.4105
  33774  H         35.8640  195.5760   46.5980 H     6925  MOL6925     0.2052
  33775  H         35.0860  194.3060   47.1760 H     6925  MOL6925     0.2052
  33776  O         70.9750    3.5750   56.1430 O.3   6926  MOL6926    -0.4105
  33777  H         70.0960    3.1650   56.2810 H     6926  MOL6926     0.2052
  33778  H         71.6670    2.8730   56.2600 H     6926  MOL6926     0.2052
  33779  O         66.5150  152.8240  272.5600 O.3   6927  MOL6927    -0.4105
  33780  H         67.4030  152.8490  272.1460 H     6927  MOL6927     0.2052
  33781  H         65.9830  153.5810  272.2000 H     6927  MOL6927     0.2052
  33782  O        180.4840   96.1080  144.8040 O.3   6928  MOL6928    -0.4105
  33783  H        181.3350   95.9890  145.2750 H     6928  MOL6928     0.2052
  33784  H        180.4020   95.3900  144.1240 H     6928  MOL6928     0.2052
  33785  O        132.8380  158.9700  288.2000 O.3   6929  MOL6929    -0.4105
  33786  H        132.2010  158.9680  287.4560 H     6929  MOL6929     0.2052
  33787  H        133.7560  158.9490  287.8230 H     6929  MOL6929     0.2052
  33788  O          4.5820  110.6810  149.2500 O.3   6930  MOL6930    -0.4105
  33789  H          4.8490  109.9160  148.6980 H     6930  MOL6930     0.2052
  33790  H          4.1990  111.3760  148.6540 H     6930  MOL6930     0.2052
  33791  O        149.2860  110.7500  193.9310 O.3   6931  MOL6931    -0.4105
  33792  H        148.3320  110.9780  193.9320 H     6931  MOL6931     0.2052
  33793  H        149.7990  111.5630  193.6860 H     6931  MOL6931     0.2052
  33794  O        129.1420   13.9660  226.6710 O.3   6932  MOL6932    -0.4105
  33795  H        129.3640   13.8560  227.6190 H     6932  MOL6932     0.2052
  33796  H        129.9690   14.2210  226.1860 H     6932  MOL6932     0.2052
  33797  O        192.2060   16.0410    6.2860 O.3   6933  MOL6933    -0.4105
  33798  H        192.6350   15.5620    5.5460 H     6933  MOL6933     0.2052
  33799  H        192.7450   16.8490    6.4870 H     6933  MOL6933     0.2052
  33800  O         60.2810  186.1280  131.6120 O.3   6934  MOL6934    -0.4105
  33801  H         59.5450  185.5940  131.9780 H     6934  MOL6934     0.2052
  33802  H         60.8350  186.4520  132.3690 H     6934  MOL6934     0.2052
  33803  O        137.3840   95.7700  291.4370 O.3   6935  MOL6935    -0.4105
  33804  H        137.9460   95.0300  291.7500 H     6935  MOL6935     0.2052
  33805  H        136.4400   95.5550  291.6540 H     6935  MOL6935     0.2052
  33806  O          2.3580   87.6120  196.8560 O.3   6936  MOL6936    -0.4105
  33807  H          2.7080   86.7400  197.1320 H     6936  MOL6936     0.2052
  33808  H          1.4320   87.6990  197.2030 H     6936  MOL6936     0.2052
  33809  O        111.3330   16.8740  124.7540 O.3   6937  MOL6937    -0.4105
  33810  H        110.8690   17.7080  124.9790 H     6937  MOL6937     0.2052
  33811  H        110.7160   16.1180  124.9300 H     6937  MOL6937     0.2052
  33812  O         36.9940   86.5620  167.5270 O.3   6938  MOL6938    -0.4105
  33813  H         37.6010   87.1950  167.0900 H     6938  MOL6938     0.2052
  33814  H         36.0620   86.8460  167.3400 H     6938  MOL6938     0.2052
  33815  O         89.3090   59.5490   25.8430 O.3   6939  MOL6939    -0.4105
  33816  H         90.0660   60.1600   25.9590 H     6939  MOL6939     0.2052
  33817  H         89.6660   58.6330   25.7110 H     6939  MOL6939     0.2052
  33818  O         34.8580   91.2580   92.1210 O.3   6940  MOL6940    -0.4105
  33819  H         35.7400   90.9940   91.7830 H     6940  MOL6940     0.2052
  33820  H         34.1790   90.6570   91.7170 H     6940  MOL6940     0.2052
  33821  O         27.3080   57.5250  252.1630 O.3   6941  MOL6941    -0.4105
  33822  H         26.4770   57.1960  251.7600 H     6941  MOL6941     0.2052
  33823  H         27.1040   58.3610  252.6560 H     6941  MOL6941     0.2052
  33824  O         38.0550   38.9650  236.7730 O.3   6942  MOL6942    -0.4105
  33825  H         38.0460   39.9450  236.7820 H     6942  MOL6942     0.2052
  33826  H         39.0000   38.6620  236.7690 H     6942  MOL6942     0.2052
  33827  O        189.0550  159.0540   77.3550 O.3   6943  MOL6943    -0.4105
  33828  H        189.5160  158.2410   77.6480 H     6943  MOL6943     0.2052
  33829  H        189.7250  159.6580   76.9390 H     6943  MOL6943     0.2052
  33830  O         79.4530   22.0120  233.2780 O.3   6944  MOL6944    -0.4105
  33831  H         79.9710   21.4280  233.8710 H     6944  MOL6944     0.2052
  33832  H         79.7260   22.9500  233.4500 H     6944  MOL6944     0.2052
  33833  O         83.6360  131.2010   69.3220 O.3   6945  MOL6945    -0.4105
  33834  H         83.9370  131.7140   70.1010 H     6945  MOL6945     0.2052
  33835  H         82.6630  131.3590   69.2050 H     6945  MOL6945     0.2052
  33836  O         45.4030   49.0700  261.3150 O.3   6946  MOL6946    -0.4105
  33837  H         45.3500   48.3400  261.9680 H     6946  MOL6946     0.2052
  33838  H         46.1050   48.8420  260.6510 H     6946  MOL6946     0.2052
  33839  O         58.4770   43.2090   10.4380 O.3   6947  MOL6947    -0.4105
  33840  H         58.1880   44.1430   10.3670 H     6947  MOL6947     0.2052
  33841  H         57.9700   42.6760    9.7720 H     6947  MOL6947     0.2052
  33842  O         50.3410    7.6070  132.7160 O.3   6948  MOL6948    -0.4105
  33843  H         50.9980    8.0840  132.1670 H     6948  MOL6948     0.2052
  33844  H         50.3310    6.6560  132.4320 H     6948  MOL6948     0.2052
  33845  O         16.6550   21.2880   58.0250 O.3   6949  MOL6949    -0.4105
  33846  H         17.1370   22.1110   57.8030 H     6949  MOL6949     0.2052
  33847  H         15.7180   21.5270   58.2460 H     6949  MOL6949     0.2052
  33848  O         32.5360   14.1810  248.3770 O.3   6950  MOL6950    -0.4105
  33849  H         32.0150   13.4690  248.8050 H     6950  MOL6950     0.2052
  33850  H         32.0130   15.0230  248.4300 H     6950  MOL6950     0.2052
  33851  O        104.5810   36.3920  286.1430 O.3   6951  MOL6951    -0.4105
  33852  H        103.7830   36.9590  286.0980 H     6951  MOL6951     0.2052
  33853  H        105.3690   36.9780  286.2880 H     6951  MOL6951     0.2052
  33854  O        167.2050  193.1640   15.1890 O.3   6952  MOL6952    -0.4105
  33855  H        168.1280  193.2290   14.8650 H     6952  MOL6952     0.2052
  33856  H        166.9380  194.0500   15.5450 H     6952  MOL6952     0.2052
  33857  O        130.5980   83.1770  189.0910 O.3   6953  MOL6953    -0.4105
  33858  H        130.5840   82.4880  188.3940 H     6953  MOL6953     0.2052
  33859  H        131.4590   83.1070  189.5790 H     6953  MOL6953     0.2052
  33860  O        181.8650  156.2030  257.6140 O.3   6954  MOL6954    -0.4105
  33861  H        181.3930  156.1870  258.4720 H     6954  MOL6954     0.2052
  33862  H        182.5920  155.5280  257.6470 H     6954  MOL6954     0.2052
  33863  O        117.1050  130.3050  233.7260 O.3   6955  MOL6955    -0.4105
  33864  H        117.8130  130.1430  234.3840 H     6955  MOL6955     0.2052
  33865  H        116.2380  130.3520  234.2080 H     6955  MOL6955     0.2052
  33866  O         13.4910  174.1780  226.2730 O.3   6956  MOL6956    -0.4105
  33867  H         13.1170  173.7180  227.0530 H     6956  MOL6956     0.2052
  33868  H         12.9760  175.0140  226.1290 H     6956  MOL6956     0.2052
  33869  O         13.1520  123.0780   24.5900 O.3   6957  MOL6957    -0.4105
  33870  H         13.4420  122.1420   24.6130 H     6957  MOL6957     0.2052
  33871  H         13.9590  123.6510   24.5140 H     6957  MOL6957     0.2052
  33872  O        170.2570  166.6890  270.0520 O.3   6958  MOL6958    -0.4105
  33873  H        169.3110  166.6810  270.3090 H     6958  MOL6958     0.2052
  33874  H        170.4720  167.5870  269.6880 H     6958  MOL6958     0.2052
  33875  O         12.5490    4.6040  283.3500 O.3   6959  MOL6959    -0.4105
  33876  H         12.2100    5.5210  283.2910 H     6959  MOL6959     0.2052
  33877  H         13.3860    4.5480  282.8200 H     6959  MOL6959     0.2052
  33878  O         30.2130  153.2560   14.1570 O.3   6960  MOL6960    -0.4105
  33879  H         29.6320  153.0070   13.4080 H     6960  MOL6960     0.2052
  33880  H         30.9470  153.8230   13.8050 H     6960  MOL6960     0.2052
  33881  O         32.5560  137.8120  112.1860 O.3   6961  MOL6961    -0.4105
  33882  H         33.4150  137.3490  112.2760 H     6961  MOL6961     0.2052
  33883  H         32.3180  137.8410  111.2230 H     6961  MOL6961     0.2052
  33884  O         13.0660  189.9530  190.1380 O.3   6962  MOL6962    -0.4105
  33885  H         13.2360  190.9170  190.0880 H     6962  MOL6962     0.2052
  33886  H         12.0840  189.8110  190.1630 H     6962  MOL6962     0.2052
  33887  O         64.2130   23.3090   90.2920 O.3   6963  MOL6963    -0.4105
  33888  H         65.1330   23.6430   90.3340 H     6963  MOL6963     0.2052
  33889  H         63.6030   24.0880   90.2180 H     6963  MOL6963     0.2052
  33890  O        120.5450  131.1640  261.1440 O.3   6964  MOL6964    -0.4105
  33891  H        121.0430  131.2120  261.9870 H     6964  MOL6964     0.2052
  33892  H        120.7910  130.3180  260.6860 H     6964  MOL6964     0.2052
  33893  O          2.0290  174.3720  203.8720 O.3   6965  MOL6965    -0.4105
  33894  H          1.9500  175.3420  203.9870 H     6965  MOL6965     0.2052
  33895  H          2.2540  174.1900  202.9230 H     6965  MOL6965     0.2052
  33896  O         13.2450   15.7620  252.9270 O.3   6966  MOL6966    -0.4105
  33897  H         12.2740   15.8840  252.9810 H     6966  MOL6966     0.2052
  33898  H         13.5910   15.6070  253.8440 H     6966  MOL6966     0.2052
  33899  O         63.3850  179.6460  186.7200 O.3   6967  MOL6967    -0.4105
  33900  H         62.6300  180.2650  186.6250 H     6967  MOL6967     0.2052
  33901  H         63.5430  179.2130  185.8410 H     6967  MOL6967     0.2052
  33902  O         41.5000  186.6960  193.4330 O.3   6968  MOL6968    -0.4105
  33903  H         42.1140  187.0760  194.0960 H     6968  MOL6968     0.2052
  33904  H         41.6270  185.7120  193.4210 H     6968  MOL6968     0.2052
  33905  O        103.4590   65.0100   63.6060 O.3   6969  MOL6969    -0.4105
  33906  H        103.3980   64.1610   64.0910 H     6969  MOL6969     0.2052
  33907  H        104.3760   65.3710   63.7240 H     6969  MOL6969     0.2052
  33908  O        161.9130  107.5380  157.9680 O.3   6970  MOL6970    -0.4105
  33909  H        162.6250  107.1310  158.5050 H     6970  MOL6970     0.2052
  33910  H        161.1740  106.8810  157.8830 H     6970  MOL6970     0.2052
  33911  O        132.8040  159.8570  158.7630 O.3   6971  MOL6971    -0.4105
  33912  H        133.7230  160.0890  158.5150 H     6971  MOL6971     0.2052
  33913  H        132.3860  160.6510  159.1870 H     6971  MOL6971     0.2052
  33914  O        194.7900  197.6150  185.3440 O.3   6972  MOL6972    -0.4105
  33915  H        195.7160  197.3010  185.2880 H     6972  MOL6972     0.2052
  33916  H        194.1900  196.8510  185.1440 H     6972  MOL6972     0.2052
  33917  O         53.3750  119.2700  198.7370 O.3   6973  MOL6973    -0.4105
  33918  H         53.3690  120.1620  199.1430 H     6973  MOL6973     0.2052
  33919  H         52.9060  119.3240  197.8640 H     6973  MOL6973     0.2052
  33920  O         43.1730  146.0140   88.4670 O.3   6974  MOL6974    -0.4105
  33921  H         43.4900  145.4580   87.7250 H     6974  MOL6974     0.2052
  33922  H         43.1130  145.4450   89.2780 H     6974  MOL6974     0.2052
  33923  O        198.1810   90.6110   31.0640 O.3   6975  MOL6975    -0.4105
  33924  H        198.4270   89.6700   31.1830 H     6975  MOL6975     0.2052
  33925  H        198.2050   91.0530   31.9520 H     6975  MOL6975     0.2052
  33926  O        139.9480  155.7520  182.1930 O.3   6976  MOL6976    -0.4105
  33927  H        140.6610  155.6680  182.8590 H     6976  MOL6976     0.2052
  33928  H        140.0490  155.0160  181.5350 H     6976  MOL6976     0.2052
  33929  O        105.3960  154.3290  241.6380 O.3   6977  MOL6977    -0.4105
  33930  H        104.4430  154.1120  241.7130 H     6977  MOL6977     0.2052
  33931  H        105.8160  153.6720  241.0240 H     6977  MOL6977     0.2052
  33932  O         83.2040  127.3810  168.1290 O.3   6978  MOL6978    -0.4105
  33933  H         82.9660  128.1810  167.6160 H     6978  MOL6978     0.2052
  33934  H         82.8050  126.5920  167.6780 H     6978  MOL6978     0.2052
  33935  O        100.0590  143.2900  226.5940 O.3   6979  MOL6979    -0.4105
  33936  H         99.1790  143.4670  226.9880 H     6979  MOL6979     0.2052
  33937  H         99.9840  143.3920  225.6090 H     6979  MOL6979     0.2052
  33938  O        167.8340  199.4020  255.3650 O.3   6980  MOL6980    -0.4105
  33939  H        167.1180  199.1550  254.7430 H     6980  MOL6980     0.2052
  33940  H        168.6720  198.9670  255.0620 H     6980  MOL6980     0.2052
  33941  O        171.4680   45.8310   69.1450 O.3   6981  MOL6981    -0.4105
  33942  H        171.2480   45.1740   68.4520 H     6981  MOL6981     0.2052
  33943  H        172.1870   45.4540   69.7150 H     6981  MOL6981     0.2052
  33944  O        145.9710  158.6740  298.7590 O.3   6982  MOL6982    -0.4105
  33945  H        145.2350  158.1100  298.4420 H     6982  MOL6982     0.2052
  33946  H        146.5550  158.1250  299.3440 H     6982  MOL6982     0.2052
  33947  O        150.1670   57.5570  275.2700 O.3   6983  MOL6983    -0.4105
  33948  H        149.7950   58.2050  274.6350 H     6983  MOL6983     0.2052
  33949  H        149.5530   56.7800  275.3160 H     6983  MOL6983     0.2052
  33950  O        131.9090  116.2910   48.1040 O.3   6984  MOL6984    -0.4105
  33951  H        131.2710  117.0320   48.0430 H     6984  MOL6984     0.2052
  33952  H        131.4000  115.4400   48.0760 H     6984  MOL6984     0.2052
  33953  O          9.8000  109.8830  295.7090 O.3   6985  MOL6985    -0.4105
  33954  H          8.8870  109.5470  295.8290 H     6985  MOL6985     0.2052
  33955  H         10.4300  109.1350  295.8760 H     6985  MOL6985     0.2052
  33956  O          7.5540  162.1500   98.9960 O.3   6986  MOL6986    -0.4105
  33957  H          7.2830  161.2770   99.3500 H     6986  MOL6986     0.2052
  33958  H          7.6810  162.7690   99.7610 H     6986  MOL6986     0.2052
  33959  O        131.8770   37.0860  208.9560 O.3   6987  MOL6987    -0.4105
  33960  H        131.5660   36.1640  208.8400 H     6987  MOL6987     0.2052
  33961  H        132.8690   37.0830  208.9460 H     6987  MOL6987     0.2052
  33962  O        184.3240  105.7400  110.6950 O.3   6988  MOL6988    -0.4105
  33963  H        183.5780  105.6220  110.0710 H     6988  MOL6988     0.2052
  33964  H        184.7240  106.6330  110.5350 H     6988  MOL6988     0.2052
  33965  O         64.5560  116.9700  234.4570 O.3   6989  MOL6989    -0.4105
  33966  H         65.4030  117.4480  234.3370 H     6989  MOL6989     0.2052
  33967  H         64.7310  116.1600  235.0030 H     6989  MOL6989     0.2052
  33968  O        175.8580  176.5460   88.6820 O.3   6990  MOL6990    -0.4105
  33969  H        175.7390  176.8560   87.7590 H     6990  MOL6990     0.2052
  33970  H        174.9820  176.2230   89.0160 H     6990  MOL6990     0.2052
  33971  O         76.2680   55.3760  210.6010 O.3   6991  MOL6991    -0.4105
  33972  H         76.9800   55.2680  209.9360 H     6991  MOL6991     0.2052
  33973  H         75.5710   54.6920  210.4240 H     6991  MOL6991     0.2052
  33974  O        172.6440   19.0680  295.2870 O.3   6992  MOL6992    -0.4105
  33975  H        173.4370   18.7520  295.7680 H     6992  MOL6992     0.2052
  33976  H        172.9260   19.7790  294.6550 H     6992  MOL6992     0.2052
  33977  O         18.4000   69.5870   91.6220 O.3   6993  MOL6993    -0.4105
  33978  H         17.8990   69.1960   92.3680 H     6993  MOL6993     0.2052
  33979  H         19.3040   69.1770   91.6060 H     6993  MOL6993     0.2052
  33980  O         46.5290  114.9320   28.1930 O.3   6994  MOL6994    -0.4105
  33981  H         46.7700  115.6700   28.7920 H     6994  MOL6994     0.2052
  33982  H         47.3650  114.5410   27.8310 H     6994  MOL6994     0.2052
  33983  O         50.0170   71.6550  208.8870 O.3   6995  MOL6995    -0.4105
  33984  H         49.7940   70.7190  208.7010 H     6995  MOL6995     0.2052
  33985  H         49.2260   72.2120  208.6670 H     6995  MOL6995     0.2052
  33986  O        163.6540  132.3120  128.2940 O.3   6996  MOL6996    -0.4105
  33987  H        164.2890  131.5650  128.2800 H     6996  MOL6996     0.2052
  33988  H        162.8240  132.0240  127.8340 H     6996  MOL6996     0.2052
  33989  O        160.6970   72.7450  167.8580 O.3   6997  MOL6997    -0.4105
  33990  H        161.6640   72.7140  167.7050 H     6997  MOL6997     0.2052
  33991  H        160.5030   72.2840  168.7150 H     6997  MOL6997     0.2052
  33992  O        123.5720  134.2130  198.8220 O.3   6998  MOL6998    -0.4105
  33993  H        124.1010  133.4460  198.5180 H     6998  MOL6998     0.2052
  33994  H        122.6760  133.8840  199.0920 H     6998  MOL6998     0.2052
  33995  O        107.7530   53.6770  208.1490 O.3   6999  MOL6999    -0.4105
  33996  H        108.4340   54.1410  207.6180 H     6999  MOL6999     0.2052
  33997  H        108.2150   53.1300  208.8360 H     6999  MOL6999     0.2052
  33998  O          7.2760   71.6040   67.0070 O.3   7000  MOL7000    -0.4105
  33999  H          6.3270   71.5730   67.2480 H     7000  MOL7000     0.2052
  34000  H          7.5690   70.6830   66.7820 H     7000  MOL7000     0.2052
  34001  O        188.9950  149.4720  191.9510 O.3   7001  MOL7001    -0.4105
  34002  H        189.1310  150.4100  192.1990 H     7001  MOL7001     0.2052
  34003  H        189.8850  149.0430  191.8590 H     7001  MOL7001     0.2052
  34004  O        132.6620  123.3000   39.2060 O.3   7002  MOL7002    -0.4105
  34005  H        133.4810  122.7620   39.1850 H     7002  MOL7002     0.2052
  34006  H        132.9180  124.2490   39.3410 H     7002  MOL7002     0.2052
  34007  O        157.7110   15.2480   12.3240 O.3   7003  MOL7003    -0.4105
  34008  H        156.7360   15.1590   12.3630 H     7003  MOL7003     0.2052
  34009  H        157.9270   16.1680   12.0200 H     7003  MOL7003     0.2052
  34010  O         48.6030  186.3260  271.9590 O.3   7004  MOL7004    -0.4105
  34011  H         47.7590  186.1350  272.4190 H     7004  MOL7004     0.2052
  34012  H         49.3310  185.8470  272.4330 H     7004  MOL7004     0.2052
  34013  O         44.4530   79.2940   79.4800 O.3   7005  MOL7005    -0.4105
  34014  H         43.6150   78.8270   79.6790 H     7005  MOL7005     0.2052
  34015  H         44.7920   79.6950   80.3230 H     7005  MOL7005     0.2052
  34016  O          8.9890   22.5780  295.8390 O.3   7006  MOL7006    -0.4105
  34017  H          8.1730   23.0790  295.6330 H     7006  MOL7006     0.2052
  34018  H          9.6920   23.2250  296.1080 H     7006  MOL7006     0.2052
  34019  O         68.3690  129.4730  242.4460 O.3   7007  MOL7007    -0.4105
  34020  H         67.6670  128.9030  242.8250 H     7007  MOL7007     0.2052
  34021  H         68.2670  129.4760  241.4580 H     7007  MOL7007     0.2052
  34022  O         92.2790  103.6820  246.5990 O.3   7008  MOL7008    -0.4105
  34023  H         91.4670  103.1360  246.6670 H     7008  MOL7008     0.2052
  34024  H         93.0580  103.0720  246.5260 H     7008  MOL7008     0.2052
  34025  O         66.4280  184.2270   45.3320 O.3   7009  MOL7009    -0.4105
  34026  H         65.6940  184.8770   45.3300 H     7009  MOL7009     0.2052
  34027  H         67.2670  184.7060   45.1070 H     7009  MOL7009     0.2052
  34028  O         52.2700  107.1080  182.6000 O.3   7010  MOL7010    -0.4105
  34029  H         53.1750  106.9620  182.2530 H     7010  MOL7010     0.2052
  34030  H         51.6890  106.3740  182.2720 H     7010  MOL7010     0.2052
  34031  O        129.2340  179.1770  274.5490 O.3   7011  MOL7011    -0.4105
  34032  H        128.4090  179.6650  274.7540 H     7011  MOL7011     0.2052
  34033  H        129.0060  178.2190  274.4260 H     7011  MOL7011     0.2052
  34034  O         60.8650  195.0010   98.8550 O.3   7012  MOL7012    -0.4105
  34035  H         60.2520  195.7390   99.0560 H     7012  MOL7012     0.2052
  34036  H         61.6320  195.3650   98.3420 H     7012  MOL7012     0.2052
  34037  O         12.6140  121.6690  127.4530 O.3   7013  MOL7013    -0.4105
  34038  H         12.8970  120.8240  127.8610 H     7013  MOL7013     0.2052
  34039  H         13.3660  122.3130  127.5210 H     7013  MOL7013     0.2052
  34040  O         36.0820  180.4590   82.3290 O.3   7014  MOL7014    -0.4105
  34041  H         36.9940  180.1110   82.4120 H     7014  MOL7014     0.2052
  34042  H         36.1130  181.4430   82.4500 H     7014  MOL7014     0.2052
  34043  O         82.2870  194.9390  173.9160 O.3   7015  MOL7015    -0.4105
  34044  H         82.5010  194.9640  172.9600 H     7015  MOL7015     0.2052
  34045  H         81.5410  194.3000  174.0510 H     7015  MOL7015     0.2052
  34046  O        153.6680    4.1590  274.5830 O.3   7016  MOL7016    -0.4105
  34047  H        153.6280    3.4080  273.9560 H     7016  MOL7016     0.2052
  34048  H        154.6150    4.2920  274.8490 H     7016  MOL7016     0.2052
  34049  O         52.8820    2.5890   18.4440 O.3   7017  MOL7017    -0.4105
  34050  H         52.8950    3.4520   18.9090 H     7017  MOL7017     0.2052
  34051  H         52.7160    2.7580   17.4810 H     7017  MOL7017     0.2052
  34052  O         36.6190  197.8720  179.4110 O.3   7018  MOL7018    -0.4105
  34053  H         36.0720  198.4460  178.8340 H     7018  MOL7018     0.2052
  34054  H         36.7880  198.3570  180.2600 H     7018  MOL7018     0.2052
  34055  O        102.0740   95.0330  267.3210 O.3   7019  MOL7019    -0.4105
  34056  H        101.3470   95.5910  267.6680 H     7019  MOL7019     0.2052
  34057  H        102.9020   95.5810  267.2980 H     7019  MOL7019     0.2052
  34058  O        164.8230   68.5710    1.7660 O.3   7020  MOL7020    -0.4105
  34059  H        164.7620   67.7110    1.3000 H     7020  MOL7020     0.2052
  34060  H        164.4620   69.2750    1.1670 H     7020  MOL7020     0.2052
  34061  O         35.6450   27.9580   58.5930 O.3   7021  MOL7021    -0.4105
  34062  H         35.9660   27.5280   57.7730 H     7021  MOL7021     0.2052
  34063  H         35.5410   27.2590   59.2900 H     7021  MOL7021     0.2052
  34064  O        177.6620  196.2810   95.4390 O.3   7022  MOL7022    -0.4105
  34065  H        176.8040  196.6700   95.1680 H     7022  MOL7022     0.2052
  34066  H        178.3410  197.0040   95.4500 H     7022  MOL7022     0.2052
  34067  O         20.4120   70.0450  220.3790 O.3   7023  MOL7023    -0.4105
  34068  H         19.5150   70.4390  220.3510 H     7023  MOL7023     0.2052
  34069  H         20.4800   69.4840  221.1950 H     7023  MOL7023     0.2052
  34070  O        165.4850   46.5360  170.8320 O.3   7024  MOL7024    -0.4105
  34071  H        165.6740   45.9790  170.0480 H     7024  MOL7024     0.2052
  34072  H        165.9670   47.3970  170.7240 H     7024  MOL7024     0.2052
  34073  O        126.4820  194.9500  282.1830 O.3   7025  MOL7025    -0.4105
  34074  H        126.9640  194.4140  281.5190 H     7025  MOL7025     0.2052
  34075  H        127.0340  195.7450  282.4000 H     7025  MOL7025     0.2052
  34076  O        142.7100    8.7650  259.8110 O.3   7026  MOL7026    -0.4105
  34077  H        142.9490    9.6660  260.1130 H     7026  MOL7026     0.2052
  34078  H        142.0320    8.3980  260.4350 H     7026  MOL7026     0.2052
  34079  O         85.9250  103.6600   72.9190 O.3   7027  MOL7027    -0.4105
  34080  H         86.6010  102.9540   72.9950 H     7027  MOL7027     0.2052
  34081  H         86.3600  104.5280   73.1240 H     7027  MOL7027     0.2052
  34082  O         23.3280  168.7750  191.4630 O.3   7028  MOL7028    -0.4105
  34083  H         24.2640  169.0570  191.3900 H     7028  MOL7028     0.2052
  34084  H         23.2740  167.8130  191.2250 H     7028  MOL7028     0.2052
  34085  O         46.2330  184.7040  194.6280 O.3   7029  MOL7029    -0.4105
  34086  H         46.9970  184.4200  195.1720 H     7029  MOL7029     0.2052
  34087  H         45.6930  183.9010  194.4080 H     7029  MOL7029     0.2052
  34088  O         60.1960    8.0530  129.5660 O.3   7030  MOL7030    -0.4105
  34089  H         59.2680    7.9120  129.2840 H     7030  MOL7030     0.2052
  34090  H         60.7200    8.3420  128.7750 H     7030  MOL7030     0.2052
  34091  O        163.6600    3.2930  163.6760 O.3   7031  MOL7031    -0.4105
  34092  H        164.1210    3.3420  164.5390 H     7031  MOL7031     0.2052
  34093  H        163.9620    2.4710  163.2090 H     7031  MOL7031     0.2052
  34094  O        174.7140  124.4260   92.2880 O.3   7032  MOL7032    -0.4105
  34095  H        174.8800  123.8590   93.0700 H     7032  MOL7032     0.2052
  34096  H        174.8120  123.8680   91.4740 H     7032  MOL7032     0.2052
  34097  O        112.4750  178.5120  280.1230 O.3   7033  MOL7033    -0.4105
  34098  H        111.6670  178.8880  279.7140 H     7033  MOL7033     0.2052
  34099  H        113.0890  179.2590  280.3430 H     7033  MOL7033     0.2052
  34100  O         85.3270   93.2740  276.8380 O.3   7034  MOL7034    -0.4105
  34101  H         85.3590   92.4360  277.3460 H     7034  MOL7034     0.2052
  34102  H         85.6060   94.0120  277.4390 H     7034  MOL7034     0.2052
  34103  O        147.3950  137.6310  274.9980 O.3   7035  MOL7035    -0.4105
  34104  H        146.9130  138.1250  275.6940 H     7035  MOL7035     0.2052
  34105  H        147.6260  138.2650  274.2710 H     7035  MOL7035     0.2052
  34106  O         63.7260   60.8760  178.8120 O.3   7036  MOL7036    -0.4105
  34107  H         63.3180   59.9880  178.7400 H     7036  MOL7036     0.2052
  34108  H         63.0700   61.5470  178.4880 H     7036  MOL7036     0.2052
  34109  O        104.4610  178.3280  283.3640 O.3   7037  MOL7037    -0.4105
  34110  H        103.5330  178.6450  283.3360 H     7037  MOL7037     0.2052
  34111  H        104.4510  177.3360  283.3510 H     7037  MOL7037     0.2052
  34112  O         21.8450   67.3030  241.0480 O.3   7038  MOL7038    -0.4105
  34113  H         21.1440   66.6190  241.0210 H     7038  MOL7038     0.2052
  34114  H         22.7190   66.8580  240.9000 H     7038  MOL7038     0.2052
  34115  O         88.6670  188.3540  269.3060 O.3   7039  MOL7039    -0.4105
  34116  H         87.8710  188.8260  268.9830 H     7039  MOL7039     0.2052
  34117  H         89.4450  188.9630  269.2200 H     7039  MOL7039     0.2052
  34118  O         15.5840  147.3280  276.2280 O.3   7040  MOL7040    -0.4105
  34119  H         14.7590  147.8230  276.4170 H     7040  MOL7040     0.2052
  34120  H         16.3440  147.9630  276.2700 H     7040  MOL7040     0.2052
  34121  O        179.1510   55.0290  126.9470 O.3   7041  MOL7041    -0.4105
  34122  H        179.1710   54.0660  127.1300 H     7041  MOL7041     0.2052
  34123  H        179.5400   55.1820  126.0460 H     7041  MOL7041     0.2052
  34124  O         53.2420  121.9110   71.9650 O.3   7042  MOL7042    -0.4105
  34125  H         53.7320  121.1750   71.5430 H     7042  MOL7042     0.2052
  34126  H         52.2880  121.6480   72.0380 H     7042  MOL7042     0.2052
  34127  O        126.2300   47.0530  203.5230 O.3   7043  MOL7043    -0.4105
  34128  H        127.1460   47.0510  203.1720 H     7043  MOL7043     0.2052
  34129  H        126.2710   47.2480  204.4950 H     7043  MOL7043     0.2052
  34130  O          8.5150  188.1970  246.0080 O.3   7044  MOL7044    -0.4105
  34131  H          8.5210  188.2740  245.0310 H     7044  MOL7044     0.2052
  34132  H          7.6590  188.5690  246.3430 H     7044  MOL7044     0.2052
  34133  O         81.3720  119.6310   45.2560 O.3   7045  MOL7045    -0.4105
  34134  H         81.2780  120.5960   45.4020 H     7045  MOL7045     0.2052
  34135  H         80.4850  119.2090   45.3930 H     7045  MOL7045     0.2052
  34136  O         74.2740   24.0570  225.7560 O.3   7046  MOL7046    -0.4105
  34137  H         75.2310   24.0800  225.9670 H     7046  MOL7046     0.2052
  34138  H         73.9360   23.1450  225.9520 H     7046  MOL7046     0.2052
  34139  O         56.1080   96.8470  267.3480 O.3   7047  MOL7047    -0.4105
  34140  H         57.0100   97.2250  267.4060 H     7047  MOL7047     0.2052
  34141  H         56.1520   95.8940  267.6200 H     7047  MOL7047     0.2052
  34142  O        175.8290   16.9890  255.8680 O.3   7048  MOL7048    -0.4105
  34143  H        174.8520   17.0140  255.7920 H     7048  MOL7048     0.2052
  34144  H        176.1910   16.5200  255.0730 H     7048  MOL7048     0.2052
  34145  O        141.5050   26.3180   42.2400 O.3   7049  MOL7049    -0.4105
  34146  H        140.6020   26.6870   42.3360 H     7049  MOL7049     0.2052
  34147  H        141.4620   25.3430   42.4220 H     7049  MOL7049     0.2052
  34148  O        112.6030  180.7380  186.0940 O.3   7050  MOL7050    -0.4105
  34149  H        112.1050  179.9090  185.9370 H     7050  MOL7050     0.2052
  34150  H        113.5690  180.5480  185.9690 H     7050  MOL7050     0.2052
  34151  O        127.3430   15.7710   11.4440 O.3   7051  MOL7051    -0.4105
  34152  H        126.8150   16.3360   12.0460 H     7051  MOL7051     0.2052
  34153  H        128.1820   16.2520   11.2230 H     7051  MOL7051     0.2052
  34154  O        177.2580  160.9770  295.4670 O.3   7052  MOL7052    -0.4105
  34155  H        177.8210  160.8800  296.2630 H     7052  MOL7052     0.2052
  34156  H        176.5880  161.6870  295.6460 H     7052  MOL7052     0.2052
  34157  O         19.6010  134.4910  276.6750 O.3   7053  MOL7053    -0.4105
  34158  H         18.8690  134.3550  277.3130 H     7053  MOL7053     0.2052
  34159  H         19.2600  135.0390  275.9220 H     7053  MOL7053     0.2052
  34160  O         14.7680   85.0280  202.0140 O.3   7054  MOL7054    -0.4105
  34161  H         14.9680   85.3600  202.9140 H     7054  MOL7054     0.2052
  34162  H         13.8960   84.5560  202.0440 H     7054  MOL7054     0.2052
  34163  O        185.8290   84.2960  293.3850 O.3   7055  MOL7055    -0.4105
  34164  H        186.2190   85.1850  293.5200 H     7055  MOL7055     0.2052
  34165  H        186.5560   83.6240  293.4490 H     7055  MOL7055     0.2052
  34166  O         39.7880   38.7300  115.9160 O.3   7056  MOL7056    -0.4105
  34167  H         38.9720   39.0880  116.3230 H     7056  MOL7056     0.2052
  34168  H         39.6290   37.7780  115.6860 H     7056  MOL7056     0.2052
  34169  O        123.0820   29.0290  196.4050 O.3   7057  MOL7057    -0.4105
  34170  H        122.2490   28.5150  196.3470 H     7057  MOL7057     0.2052
  34171  H        123.8340   28.4310  196.1540 H     7057  MOL7057     0.2052
  34172  O        126.3500    1.1280   85.8700 O.3   7058  MOL7058    -0.4105
  34173  H        125.4220    0.9500   86.1310 H     7058  MOL7058     0.2052
  34174  H        126.4120    2.0730   85.5730 H     7058  MOL7058     0.2052
  34175  O          9.6950   34.1600  291.6310 O.3   7059  MOL7059    -0.4105
  34176  H          9.2500   33.3850  291.2290 H     7059  MOL7059     0.2052
  34177  H         10.5850   33.8700  291.9620 H     7059  MOL7059     0.2052
  34178  O         23.6040   59.7450  292.5100 O.3   7060  MOL7060    -0.4105
  34179  H         24.4390   60.2410  292.3810 H     7060  MOL7060     0.2052
  34180  H         23.2550   59.9550  293.4150 H     7060  MOL7060     0.2052
  34181  O         33.4440  100.7740   42.4350 O.3   7061  MOL7061    -0.4105
  34182  H         33.9100  101.6250   42.2960 H     7061  MOL7061     0.2052
  34183  H         32.4680  100.9520   42.4430 H     7061  MOL7061     0.2052
  34184  O         55.5230   15.2890   41.5420 O.3   7062  MOL7062    -0.4105
  34185  H         54.6400   14.8680   41.6010 H     7062  MOL7062     0.2052
  34186  H         56.2120   14.5860   41.6660 H     7062  MOL7062     0.2052
  34187  O        103.4600   58.0610  242.2470 O.3   7063  MOL7063    -0.4105
  34188  H        103.7820   58.2940  243.1430 H     7063  MOL7063     0.2052
  34189  H        102.5060   57.8000  242.3180 H     7063  MOL7063     0.2052
  34190  O         53.8010  195.4260   68.4070 O.3   7064  MOL7064    -0.4105
  34191  H         53.2890  194.7790   67.8780 H     7064  MOL7064     0.2052
  34192  H         54.7050  195.5090   68.0060 H     7064  MOL7064     0.2052
  34193  O        142.1960   77.3300   23.1670 O.3   7065  MOL7065    -0.4105
  34194  H        142.4510   78.1780   22.7480 H     7065  MOL7065     0.2052
  34195  H        141.2670   77.1140   22.8900 H     7065  MOL7065     0.2052
  34196  O        144.1000  198.1610  243.9340 O.3   7066  MOL7066    -0.4105
  34197  H        143.5270  198.9150  244.1860 H     7066  MOL7066     0.2052
  34198  H        143.5350  197.3470  243.8780 H     7066  MOL7066     0.2052
  34199  O         30.0670   95.0520   22.9480 O.3   7067  MOL7067    -0.4105
  34200  H         29.5980   95.8990   22.7950 H     7067  MOL7067     0.2052
  34201  H         31.0420   95.2320   22.9490 H     7067  MOL7067     0.2052
  34202  O        152.2640   88.1200  285.0120 O.3   7068  MOL7068    -0.4105
  34203  H        152.0680   88.9390  284.5120 H     7068  MOL7068     0.2052
  34204  H        151.6000   87.4300  284.7510 H     7068  MOL7068     0.2052
  34205  O        170.0030  111.8740  179.8230 O.3   7069  MOL7069    -0.4105
  34206  H        170.3380  111.0310  179.4540 H     7069  MOL7069     0.2052
  34207  H        169.8830  112.5140  179.0740 H     7069  MOL7069     0.2052
  34208  O        198.6800   51.5510  267.7070 O.3   7070  MOL7070    -0.4105
  34209  H        198.8980   51.4350  268.6550 H     7070  MOL7070     0.2052
  34210  H        197.9920   52.2610  267.6310 H     7070  MOL7070     0.2052
  34211  O         87.9800  119.8570   53.5830 O.3   7071  MOL7071    -0.4105
  34212  H         87.0800  119.8480   53.9700 H     7071  MOL7071     0.2052
  34213  H         88.0560  120.6500   52.9920 H     7071  MOL7071     0.2052
  34214  O        186.7800  183.9020  227.9780 O.3   7072  MOL7072    -0.4105
  34215  H        185.9240  183.7140  227.5400 H     7072  MOL7072     0.2052
  34216  H        187.4930  183.8850  227.2880 H     7072  MOL7072     0.2052
  34217  O        117.9310   81.2040  288.7680 O.3   7073  MOL7073    -0.4105
  34218  H        118.1130   82.1500  288.9460 H     7073  MOL7073     0.2052
  34219  H        118.5720   80.6600  289.2950 H     7073  MOL7073     0.2052
  34220  O        163.9360   12.1490  275.8810 O.3   7074  MOL7074    -0.4105
  34221  H        164.7010   12.0830  275.2720 H     7074  MOL7074     0.2052
  34222  H        163.5380   11.2450  275.9780 H     7074  MOL7074     0.2052
  34223  O         94.8370   19.6810   85.1030 O.3   7075  MOL7075    -0.4105
  34224  H         94.0490   20.2610   85.1600 H     7075  MOL7075     0.2052
  34225  H         95.6470   20.2520   85.1560 H     7075  MOL7075     0.2052
  34226  O         13.5930   48.9440  242.8030 O.3   7076  MOL7076    -0.4105
  34227  H         13.7890   48.0980  243.2580 H     7076  MOL7076     0.2052
  34228  H         12.7280   49.2880  243.1480 H     7076  MOL7076     0.2052
  34229  O         45.2800  110.4920  165.2420 O.3   7077  MOL7077    -0.4105
  34230  H         45.8620  111.0390  164.6740 H     7077  MOL7077     0.2052
  34231  H         44.5070  110.1930  164.6970 H     7077  MOL7077     0.2052
  34232  O         56.4160    8.2780   50.3850 O.3   7078  MOL7078    -0.4105
  34233  H         57.3500    8.0060   50.4990 H     7078  MOL7078     0.2052
  34234  H         55.8630    7.4590   50.2960 H     7078  MOL7078     0.2052
  34235  O         78.1760  199.3250  239.3300 O.3   7079  MOL7079    -0.4105
  34236  H         79.1240  199.1770  239.1270 H     7079  MOL7079     0.2052
  34237  H         77.6540  199.1690  238.5010 H     7079  MOL7079     0.2052
  34238  O         75.4650  198.2580  208.0280 O.3   7080  MOL7080    -0.4105
  34239  H         75.3620  197.3230  208.3050 H     7080  MOL7080     0.2052
  34240  H         76.3790  198.5550  208.2740 H     7080  MOL7080     0.2052
  34241  O        135.8790  191.5100  124.1910 O.3   7081  MOL7081    -0.4105
  34242  H        136.8300  191.6140  124.4020 H     7081  MOL7081     0.2052
  34243  H        135.4240  192.3730  124.3740 H     7081  MOL7081     0.2052
  34244  O         25.7320  191.4460  139.1660 O.3   7082  MOL7082    -0.4105
  34245  H         25.4710  190.8770  138.4120 H     7082  MOL7082     0.2052
  34246  H         26.6920  191.6740  139.0640 H     7082  MOL7082     0.2052
  34247  O        178.3470   66.3710    1.7750 O.3   7083  MOL7083    -0.4105
  34248  H        179.1530   65.8250    1.8840 H     7083  MOL7083     0.2052
  34249  H        178.3980   67.1290    2.4140 H     7083  MOL7083     0.2052
  34250  O         94.2700   54.7480  168.3670 O.3   7084  MOL7084    -0.4105
  34251  H         94.7730   55.5840  168.2800 H     7084  MOL7084     0.2052
  34252  H         94.9170   54.0110  168.5190 H     7084  MOL7084     0.2052
  34253  O        128.8600   48.8260  102.4730 O.3   7085  MOL7085    -0.4105
  34254  H        128.6080   47.9980  102.0140 H     7085  MOL7085     0.2052
  34255  H        128.1010   49.1040  103.0500 H     7085  MOL7085     0.2052
  34256  O         94.7550   34.6660   48.1540 O.3   7086  MOL7086    -0.4105
  34257  H         93.9100   35.0860   47.8870 H     7086  MOL7086     0.2052
  34258  H         94.6590   33.6840   48.0530 H     7086  MOL7086     0.2052
  34259  O        168.1370  179.7010   87.0050 O.3   7087  MOL7087    -0.4105
  34260  H        168.3410  180.2660   87.7790 H     7087  MOL7087     0.2052
  34261  H        167.1720  179.4730   87.0330 H     7087  MOL7087     0.2052
  34262  O        101.3920    5.3920   41.2700 O.3   7088  MOL7088    -0.4105
  34263  H        100.5010    4.9850   41.2190 H     7088  MOL7088     0.2052
  34264  H        102.0190    4.7200   41.6430 H     7088  MOL7088     0.2052
  34265  O        170.3120   67.6410  122.2220 O.3   7089  MOL7089    -0.4105
  34266  H        170.5270   66.6860  122.2570 H     7089  MOL7089     0.2052
  34267  H        171.1630   68.1520  122.2250 H     7089  MOL7089     0.2052
  34268  O        115.8550  186.1240  183.4240 O.3   7090  MOL7090    -0.4105
  34269  H        115.0510  185.9950  182.8790 H     7090  MOL7090     0.2052
  34270  H        115.8510  187.0550  183.7680 H     7090  MOL7090     0.2052
  34271  O        191.1320  180.5580  130.6040 O.3   7091  MOL7091    -0.4105
  34272  H        190.8090  179.6810  130.3100 H     7091  MOL7091     0.2052
  34273  H        190.3450  181.1230  130.8190 H     7091  MOL7091     0.2052
  34274  O        194.9630  113.3160  177.1100 O.3   7092  MOL7092    -0.4105
  34275  H        195.8250  113.5010  177.5380 H     7092  MOL7092     0.2052
  34276  H        195.0170  112.4240  176.6780 H     7092  MOL7092     0.2052
  34277  O        147.4730  189.1660   91.2790 O.3   7093  MOL7093    -0.4105
  34278  H        147.4160  188.3420   91.8070 H     7093  MOL7093     0.2052
  34279  H        148.4320  189.3750   91.1330 H     7093  MOL7093     0.2052
  34280  O        135.4600  169.2520   35.3650 O.3   7094  MOL7094    -0.4105
  34281  H        136.0150  168.8470   36.0640 H     7094  MOL7094     0.2052
  34282  H        134.9850  168.5250   34.8850 H     7094  MOL7094     0.2052
  34283  O         91.4520  122.2940  212.0430 O.3   7095  MOL7095    -0.4105
  34284  H         91.7570  121.3650  212.1000 H     7095  MOL7095     0.2052
  34285  H         90.7350  122.3460  211.3590 H     7095  MOL7095     0.2052
  34286  O         51.4850  181.2960   50.2500 O.3   7096  MOL7096    -0.4105
  34287  H         51.4340  180.6360   50.9730 H     7096  MOL7096     0.2052
  34288  H         50.7230  181.9240   50.3500 H     7096  MOL7096     0.2052
  34289  O        177.5970  181.8820   71.3970 O.3   7097  MOL7097    -0.4105
  34290  H        178.3140  181.4580   70.8810 H     7097  MOL7097     0.2052
  34291  H        177.4850  182.8110   71.0670 H     7097  MOL7097     0.2052
  34292  O         48.3420   58.0590  244.1540 O.3   7098  MOL7098    -0.4105
  34293  H         48.2420   57.5640  243.3140 H     7098  MOL7098     0.2052
  34294  H         48.3980   59.0260  243.9390 H     7098  MOL7098     0.2052
  34295  O         75.4550   20.6650  131.9350 O.3   7099  MOL7099    -0.4105
  34296  H         75.5950   19.7020  131.8190 H     7099  MOL7099     0.2052
  34297  H         75.5810   20.8840  132.8950 H     7099  MOL7099     0.2052
  34298  O         70.5670   36.0860   13.9910 O.3   7100  MOL7100    -0.4105
  34299  H         69.5940   35.9930   13.9230 H     7100  MOL7100     0.2052
  34300  H         70.7710   37.0120   14.2850 H     7100  MOL7100     0.2052
  34301  O        127.0000   14.6070  246.0100 O.3   7101  MOL7101    -0.4105
  34302  H        127.5430   14.1080  245.3650 H     7101  MOL7101     0.2052
  34303  H        126.1500   14.8630  245.5680 H     7101  MOL7101     0.2052
  34304  O          6.1390   74.4620   70.9000 O.3   7102  MOL7102    -0.4105
  34305  H          5.3590   74.7100   71.4390 H     7102  MOL7102     0.2052
  34306  H          6.0010   73.5410   70.5590 H     7102  MOL7102     0.2052
  34307  O         31.5490  110.4630  193.5460 O.3   7103  MOL7103    -0.4105
  34308  H         31.2610  109.5310  193.4530 H     7103  MOL7103     0.2052
  34309  H         32.2990  110.6200  192.9150 H     7103  MOL7103     0.2052
  34310  O        123.5380  136.7990  165.7630 O.3   7104  MOL7104    -0.4105
  34311  H        123.8010  137.1000  164.8680 H     7104  MOL7104     0.2052
  34312  H        122.5820  136.5350  165.7330 H     7104  MOL7104     0.2052
  34313  O        180.0000  105.4330  288.3350 O.3   7105  MOL7105    -0.4105
  34314  H        179.0960  105.7170  288.0850 H     7105  MOL7105     0.2052
  34315  H        180.0380  104.4430  288.2870 H     7105  MOL7105     0.2052
  34316  O         69.8540  128.0480  298.9040 O.3   7106  MOL7106    -0.4105
  34317  H         70.5180  128.7330  299.1260 H     7106  MOL7106     0.2052
  34318  H         68.9580  128.4750  298.8960 H     7106  MOL7106     0.2052
  34319  O         24.1530   88.4570  139.8300 O.3   7107  MOL7107    -0.4105
  34320  H         23.6380   89.2770  139.9800 H     7107  MOL7107     0.2052
  34321  H         25.1080   88.7050  139.7240 H     7107  MOL7107     0.2052
  34322  O         32.2410  167.5450  224.8330 O.3   7108  MOL7108    -0.4105
  34323  H         31.5340  168.0360  224.3640 H     7108  MOL7108     0.2052
  34324  H         32.1070  167.6660  225.8090 H     7108  MOL7108     0.2052
  34325  O        110.3320  155.7930  182.4090 O.3   7109  MOL7109    -0.4105
  34326  H        111.1890  156.0030  181.9840 H     7109  MOL7109     0.2052
  34327  H        110.2600  154.8060  182.4900 H     7109  MOL7109     0.2052
  34328  O         51.2010   17.1500  121.6010 O.3   7110  MOL7110    -0.4105
  34329  H         50.7800   16.8560  122.4350 H     7110  MOL7110     0.2052
  34330  H         52.0570   17.5980  121.8260 H     7110  MOL7110     0.2052
  34331  O         72.2750   42.2200  199.4630 O.3   7111  MOL7111    -0.4105
  34332  H         72.5510   43.1540  199.5770 H     7111  MOL7111     0.2052
  34333  H         71.3030   42.2060  199.2640 H     7111  MOL7111     0.2052
  34334  O        149.2030   11.4970  264.4190 O.3   7112  MOL7112    -0.4105
  34335  H        149.5440   12.1770  263.8000 H     7112  MOL7112     0.2052
  34336  H        149.3630   11.8120  265.3460 H     7112  MOL7112     0.2052
  34337  O        197.8420  195.1440  237.9930 O.3   7113  MOL7113    -0.4105
  34338  H        198.1700  194.2420  238.1890 H     7113  MOL7113     0.2052
  34339  H        198.3960  195.5240  237.2630 H     7113  MOL7113     0.2052
  34340  O         78.3420  182.3570  145.2800 O.3   7114  MOL7114    -0.4105
  34341  H         78.2390  183.2100  145.7510 H     7114  MOL7114     0.2052
  34342  H         78.5270  181.6520  145.9530 H     7114  MOL7114     0.2052
  34343  O         20.1050   54.2190  116.7020 O.3   7115  MOL7115    -0.4105
  34344  H         19.3380   54.1090  116.1020 H     7115  MOL7115     0.2052
  34345  H         20.6390   53.3830  116.6800 H     7115  MOL7115     0.2052
  34346  O         32.8270   23.7260  190.0650 O.3   7116  MOL7116    -0.4105
  34347  H         32.5380   23.2900  189.2360 H     7116  MOL7116     0.2052
  34348  H         32.6030   23.1290  190.8250 H     7116  MOL7116     0.2052
  34349  O         20.5670  149.6510  219.6100 O.3   7117  MOL7117    -0.4105
  34350  H         21.4740  149.9120  219.3470 H     7117  MOL7117     0.2052
  34351  H         20.5840  149.3870  220.5660 H     7117  MOL7117     0.2052
  34352  O        143.5540   41.2770  212.6130 O.3   7118  MOL7118    -0.4105
  34353  H        143.0070   42.0590  212.3850 H     7118  MOL7118     0.2052
  34354  H        143.2370   40.9200  213.4830 H     7118  MOL7118     0.2052
  34355  O         50.6000   76.5320  240.4190 O.3   7119  MOL7119    -0.4105
  34356  H         50.8160   77.4880  240.4360 H     7119  MOL7119     0.2052
  34357  H         51.4510   76.0210  240.4180 H     7119  MOL7119     0.2052
  34358  O         20.9360   99.6320  116.1670 O.3   7120  MOL7120    -0.4105
  34359  H         20.9920  100.6100  116.1930 H     7120  MOL7120     0.2052
  34360  H         20.0850   99.3580  116.5970 H     7120  MOL7120     0.2052
  34361  O         63.0120  125.2490   40.6560 O.3   7121  MOL7121    -0.4105
  34362  H         62.1460  124.8150   40.5130 H     7121  MOL7121     0.2052
  34363  H         62.8490  126.2040   40.8720 H     7121  MOL7121     0.2052
  34364  O         43.4890  133.3000  280.3880 O.3   7122  MOL7122    -0.4105
  34365  H         43.4610  134.2330  280.0900 H     7122  MOL7122     0.2052
  34366  H         42.7210  132.8220  279.9790 H     7122  MOL7122     0.2052
  34367  O        127.4590   87.9000    5.8900 O.3   7123  MOL7123    -0.4105
  34368  H        128.2320   87.3620    6.1630 H     7123  MOL7123     0.2052
  34369  H        126.6800   87.2940    5.7920 H     7123  MOL7123     0.2052
  34370  O        160.2530  185.9290  176.6860 O.3   7124  MOL7124    -0.4105
  34371  H        161.1900  185.9520  176.3980 H     7124  MOL7124     0.2052
  34372  H        159.7710  185.2700  176.1220 H     7124  MOL7124     0.2052
  34373  O        153.4430  172.8810  201.3050 O.3   7125  MOL7125    -0.4105
  34374  H        154.2040  172.2900  201.1240 H     7125  MOL7125     0.2052
  34375  H        153.7450  173.8190  201.1900 H     7125  MOL7125     0.2052
  34376  O        157.1150   14.7590  140.9790 O.3   7126  MOL7126    -0.4105
  34377  H        157.7180   14.2850  140.3690 H     7126  MOL7126     0.2052
  34378  H        156.3470   15.1010  140.4530 H     7126  MOL7126     0.2052
  34379  O         72.1930   19.5480  228.5750 O.3   7127  MOL7127    -0.4105
  34380  H         71.3780   19.5220  228.0320 H     7127  MOL7127     0.2052
  34381  H         72.2620   20.4470  228.9900 H     7127  MOL7127     0.2052
  34382  O        188.1060   57.4600  278.4670 O.3   7128  MOL7128    -0.4105
  34383  H        188.1100   58.4130  278.6920 H     7128  MOL7128     0.2052
  34384  H        188.2610   56.9430  279.3000 H     7128  MOL7128     0.2052
  34385  O         82.1700   38.9680   68.2520 O.3   7129  MOL7129    -0.4105
  34386  H         82.9230   39.5760   68.0970 H     7129  MOL7129     0.2052
  34387  H         81.7880   38.7160   67.3720 H     7129  MOL7129     0.2052
  34388  O         21.8500   42.4800  235.8480 O.3   7130  MOL7130    -0.4105
  34389  H         21.1740   42.2760  236.5280 H     7130  MOL7130     0.2052
  34390  H         21.3880   42.8570  235.0550 H     7130  MOL7130     0.2052
  34391  O        140.1900   13.3460   86.7830 O.3   7131  MOL7131    -0.4105
  34392  H        140.6970   12.5690   87.0980 H     7131  MOL7131     0.2052
  34393  H        140.8320   14.0070   86.4150 H     7131  MOL7131     0.2052
  34394  O        164.2060  105.8990  255.4590 O.3   7132  MOL7132    -0.4105
  34395  H        164.7690  105.7240  256.2420 H     7132  MOL7132     0.2052
  34396  H        163.6520  105.0940  255.2900 H     7132  MOL7132     0.2052
  34397  O        136.1980  168.7200   13.8310 O.3   7133  MOL7133    -0.4105
  34398  H        135.3220  169.1590   13.8490 H     7133  MOL7133     0.2052
  34399  H        136.8960  169.4240   13.7760 H     7133  MOL7133     0.2052
  34400  O         94.9940  133.6980  189.1110 O.3   7134  MOL7134    -0.4105
  34401  H         95.3900  133.1990  188.3660 H     7134  MOL7134     0.2052
  34402  H         94.9360  134.6530  188.8480 H     7134  MOL7134     0.2052
  34403  O        125.6020  170.3200   98.5680 O.3   7135  MOL7135    -0.4105
  34404  H        126.5040  170.5500   98.2620 H     7135  MOL7135     0.2052
  34405  H        124.9530  170.8850   98.0740 H     7135  MOL7135     0.2052
  34406  O         93.7110  179.1000  173.4910 O.3   7136  MOL7136    -0.4105
  34407  H         94.5270  179.1280  172.9490 H     7136  MOL7136     0.2052
  34408  H         93.6460  179.9510  173.9970 H     7136  MOL7136     0.2052
  34409  O         53.2310  144.4320  195.5750 O.3   7137  MOL7137    -0.4105
  34410  H         53.2450  145.0890  194.8480 H     7137  MOL7137     0.2052
  34411  H         54.1360  144.0350  195.6530 H     7137  MOL7137     0.2052
  34412  O        132.5270  140.2030   20.0150 O.3   7138  MOL7138    -0.4105
  34413  H        131.6170  139.8730   20.1700 H     7138  MOL7138     0.2052
  34414  H        133.1110  139.4250   19.8200 H     7138  MOL7138     0.2052
  34415  O         12.8660  132.1290   99.3410 O.3   7139  MOL7139    -0.4105
  34416  H         12.5680  132.9960   98.9950 H     7139  MOL7139     0.2052
  34417  H         13.8480  132.1710   99.4780 H     7139  MOL7139     0.2052
  34418  O        113.6500  146.4980   48.3500 O.3   7140  MOL7140    -0.4105
  34419  H        114.0000  145.7600   48.8920 H     7140  MOL7140     0.2052
  34420  H        114.3530  147.1950   48.2840 H     7140  MOL7140     0.2052
  34421  O        115.5790  175.7200  235.9530 O.3   7141  MOL7141    -0.4105
  34422  H        114.6800  175.4690  235.6530 H     7141  MOL7141     0.2052
  34423  H        116.1910  175.6680  235.1740 H     7141  MOL7141     0.2052
  34424  O        110.4460    9.2920  249.6580 O.3   7142  MOL7142    -0.4105
  34425  H        111.2650    8.8440  249.3580 H     7142  MOL7142     0.2052
  34426  H        110.2930    9.0530  250.6090 H     7142  MOL7142     0.2052
  34427  O         74.2710   58.0480   45.3600 O.3   7143  MOL7143    -0.4105
  34428  H         75.0570   58.6280   45.4470 H     7143  MOL7143     0.2052
  34429  H         73.4660   58.6240   45.2900 H     7143  MOL7143     0.2052
  34430  O        163.4370  168.6670  150.3850 O.3   7144  MOL7144    -0.4105
  34431  H        162.7880  168.2780  151.0080 H     7144  MOL7144     0.2052
  34432  H        163.7020  167.9660  149.7340 H     7144  MOL7144     0.2052
  34433  O         66.3820  198.1990  244.5740 O.3   7145  MOL7145    -0.4105
  34434  H         65.6770  198.3970  243.9230 H     7145  MOL7145     0.2052
  34435  H         66.0380  198.4140  245.4790 H     7145  MOL7145     0.2052
  34436  O        113.9340   20.7590  167.6760 O.3   7146  MOL7146    -0.4105
  34437  H        114.7090   21.0250  168.2140 H     7146  MOL7146     0.2052
  34438  H        113.6990   19.8240  167.9120 H     7146  MOL7146     0.2052
  34439  O        173.5010   10.7070  201.5330 O.3   7147  MOL7147    -0.4105
  34440  H        172.9760   11.3760  202.0190 H     7147  MOL7147     0.2052
  34441  H        173.5290   10.9690  200.5760 H     7147  MOL7147     0.2052
  34442  O        146.5470  180.6400   64.4870 O.3   7148  MOL7148    -0.4105
  34443  H        147.2410  181.3270   64.4100 H     7148  MOL7148     0.2052
  34444  H        145.6980  181.0140   64.1340 H     7148  MOL7148     0.2052
  34445  O        155.5380   87.7790    0.7510 O.3   7149  MOL7149    -0.4105
  34446  H        156.1490   87.6100    0.0040 H     7149  MOL7149     0.2052
  34447  H        155.5980   87.0150    1.3810 H     7149  MOL7149     0.2052
  34448  O         75.3440  114.3830  211.5190 O.3   7150  MOL7150    -0.4105
  34449  H         74.5830  114.2130  210.9260 H     7150  MOL7150     0.2052
  34450  H         75.6110  113.5230  211.9360 H     7150  MOL7150     0.2052
  34451  O          2.9210   56.1200  212.5990 O.3   7151  MOL7151    -0.4105
  34452  H          3.0530   57.0630  212.8310 H     7151  MOL7151     0.2052
  34453  H          2.7860   55.6090  213.4390 H     7151  MOL7151     0.2052
  34454  O        145.3590  197.6340  248.5650 O.3   7152  MOL7152    -0.4105
  34455  H        144.8010  197.2160  249.2550 H     7152  MOL7152     0.2052
  34456  H        146.2320  197.1640  248.5440 H     7152  MOL7152     0.2052
  34457  O        155.7920  151.6110  233.5070 O.3   7153  MOL7153    -0.4105
  34458  H        154.8610  151.9020  233.4150 H     7153  MOL7153     0.2052
  34459  H        155.8580  150.6760  233.1830 H     7153  MOL7153     0.2052
  34460  O         44.1350  123.4710  237.2490 O.3   7154  MOL7154    -0.4105
  34461  H         43.4010  124.0110  236.8900 H     7154  MOL7154     0.2052
  34462  H         44.8840  124.0790  237.4810 H     7154  MOL7154     0.2052
  34463  O        137.7490   19.2050  241.2580 O.3   7155  MOL7155    -0.4105
  34464  H        138.6920   19.4340  241.1150 H     7155  MOL7155     0.2052
  34465  H        137.2050   20.0190  241.0970 H     7155  MOL7155     0.2052
  34466  O        136.5200   54.6820  283.4210 O.3   7156  MOL7156    -0.4105
  34467  H        136.3600   54.0500  282.6900 H     7156  MOL7156     0.2052
  34468  H        137.4350   55.0500  283.3190 H     7156  MOL7156     0.2052
  34469  O         91.3030  138.7110   11.5740 O.3   7157  MOL7157    -0.4105
  34470  H         91.2220  137.9060   12.1270 H     7157  MOL7157     0.2052
  34471  H         92.2400  139.0330   11.6290 H     7157  MOL7157     0.2052
  34472  O         71.6000   52.5020  222.7200 O.3   7158  MOL7158    -0.4105
  34473  H         71.2030   51.7550  223.2150 H     7158  MOL7158     0.2052
  34474  H         72.5100   52.2340  222.4300 H     7158  MOL7158     0.2052
  34475  O        193.8870    1.3040  137.8690 O.3   7159  MOL7159    -0.4105
  34476  H        192.9480    1.0280  137.9260 H     7159  MOL7159     0.2052
  34477  H        194.4550    0.5060  138.0320 H     7159  MOL7159     0.2052
  34478  O        198.2350   60.6010   29.6810 O.3   7160  MOL7160    -0.4105
  34479  H        198.3760   59.7820   30.2010 H     7160  MOL7160     0.2052
  34480  H        198.9610   61.2400   29.9030 H     7160  MOL7160     0.2052
  34481  O        187.8990   34.2930  105.3090 O.3   7161  MOL7161    -0.4105
  34482  H        188.5130   35.0570  105.2790 H     7161  MOL7161     0.2052
  34483  H        188.4400   33.4630  105.3600 H     7161  MOL7161     0.2052
  34484  O         15.3340   17.3130  154.2390 O.3   7162  MOL7162    -0.4105
  34485  H         15.5850   18.2610  154.2380 H     7162  MOL7162     0.2052
  34486  H         14.3440   17.2540  154.2190 H     7162  MOL7162     0.2052
  34487  O         97.6870  125.7080   79.0810 O.3   7163  MOL7163    -0.4105
  34488  H         97.3920  126.6330   78.9460 H     7163  MOL7163     0.2052
  34489  H         98.6510  125.7210   79.3170 H     7163  MOL7163     0.2052
  34490  O         18.8130  128.6990  211.8040 O.3   7164  MOL7164    -0.4105
  34491  H         18.5210  129.5500  212.1940 H     7164  MOL7164     0.2052
  34492  H         18.2300  127.9790  212.1580 H     7164  MOL7164     0.2052
  34493  O        160.4640   92.5360  230.2320 O.3   7165  MOL7165    -0.4105
  34494  H        161.1980   92.3460  229.6110 H     7165  MOL7165     0.2052
  34495  H        159.6750   92.8210  229.7030 H     7165  MOL7165     0.2052
  34496  O          3.3620   74.4860   53.8510 O.3   7166  MOL7166    -0.4105
  34497  H          4.0630   73.8520   54.1110 H     7166  MOL7166     0.2052
  34498  H          3.7670   75.3900   53.7960 H     7166  MOL7166     0.2052
  34499  O        185.3080   88.3420  258.3410 O.3   7167  MOL7167    -0.4105
  34500  H        185.4540   89.3100  258.3880 H     7167  MOL7167     0.2052
  34501  H        186.1830   87.8890  258.4620 H     7167  MOL7167     0.2052
  34502  O          2.6120   12.2500  184.5480 O.3   7168  MOL7168    -0.4105
  34503  H          1.7370   11.8100  184.5460 H     7168  MOL7168     0.2052
  34504  H          2.7450   12.6800  183.6630 H     7168  MOL7168     0.2052
  34505  O        158.6570  159.5350   25.0550 O.3   7169  MOL7169    -0.4105
  34506  H        158.1090  159.1090   25.7460 H     7169  MOL7169     0.2052
  34507  H        158.6170  158.9750   24.2360 H     7169  MOL7169     0.2052
  34508  O        133.0660    9.7800  283.9790 O.3   7170  MOL7170    -0.4105
  34509  H        132.6610    9.9170  283.0970 H     7170  MOL7170     0.2052
  34510  H        132.3850    9.9910  284.6690 H     7170  MOL7170     0.2052
  34511  O        166.3110  112.7690   26.4580 O.3   7171  MOL7171    -0.4105
  34512  H        165.3380  112.8340   26.5570 H     7171  MOL7171     0.2052
  34513  H        166.5660  111.8120   26.5200 H     7171  MOL7171     0.2052
  34514  O         93.9260  190.1460  246.3640 O.3   7172  MOL7172    -0.4105
  34515  H         93.0360  189.7360  246.3960 H     7172  MOL7172     0.2052
  34516  H         94.5350  189.5290  245.8820 H     7172  MOL7172     0.2052
  34517  O        129.5460  118.7370  268.3720 O.3   7173  MOL7173    -0.4105
  34518  H        130.1270  119.4810  268.1080 H     7173  MOL7173     0.2052
  34519  H        129.2810  118.2440  267.5520 H     7173  MOL7173     0.2052
  34520  O          1.6320  130.9680  268.6790 O.3   7174  MOL7174    -0.4105
  34521  H          1.5530  130.7000  267.7400 H     7174  MOL7174     0.2052
  34522  H          2.5090  131.4170  268.8010 H     7174  MOL7174     0.2052
  34523  O        151.6020   52.4780   12.5090 O.3   7175  MOL7175    -0.4105
  34524  H        151.8170   53.0650   11.7540 H     7175  MOL7175     0.2052
  34525  H        150.6180   52.4910   12.6420 H     7175  MOL7175     0.2052
  34526  O          6.2320  175.5540  257.6180 O.3   7176  MOL7176    -0.4105
  34527  H          7.1740  175.8180  257.5620 H     7176  MOL7176     0.2052
  34528  H          5.6950  176.3610  257.8280 H     7176  MOL7176     0.2052
  34529  O        132.1430   14.3060  284.6080 O.3   7177  MOL7177    -0.4105
  34530  H        132.9370   13.8450  284.2630 H     7177  MOL7177     0.2052
  34531  H        131.5290   13.6240  284.9860 H     7177  MOL7177     0.2052
  34532  O         24.0670  115.5770  168.6150 O.3   7178  MOL7178    -0.4105
  34533  H         23.8800  115.2430  169.5180 H     7178  MOL7178     0.2052
  34534  H         25.0200  115.8490  168.5760 H     7178  MOL7178     0.2052
  34535  O         88.8460  145.3390   44.0970 O.3   7179  MOL7179    -0.4105
  34536  H         87.9220  145.1460   44.3590 H     7179  MOL7179     0.2052
  34537  H         88.9150  146.3080   43.8940 H     7179  MOL7179     0.2052
  34538  O        190.4500   36.3430   68.2130 O.3   7180  MOL7180    -0.4105
  34539  H        189.7160   36.9700   68.0480 H     7180  MOL7180     0.2052
  34540  H        191.2790   36.8680   68.3630 H     7180  MOL7180     0.2052
  34541  O         95.1610  159.8850   36.7390 O.3   7181  MOL7181    -0.4105
  34542  H         94.1860  159.7830   36.7570 H     7181  MOL7181     0.2052
  34543  H         95.5200  159.3050   36.0190 H     7181  MOL7181     0.2052
  34544  O        121.5440  133.1500   18.6620 O.3   7182  MOL7182    -0.4105
  34545  H        121.6240  132.1740   18.6320 H     7182  MOL7182     0.2052
  34546  H        120.9860  133.4400   17.8950 H     7182  MOL7182     0.2052
  34547  O         26.1120   61.5320  139.4030 O.3   7183  MOL7183    -0.4105
  34548  H         25.1620   61.3580  139.2380 H     7183  MOL7183     0.2052
  34549  H         26.5670   61.6240  138.5260 H     7183  MOL7183     0.2052
  34550  O        118.7880  127.9970   25.4820 O.3   7184  MOL7184    -0.4105
  34551  H        117.8450  128.2110   25.6420 H     7184  MOL7184     0.2052
  34552  H        119.0240  127.2050   26.0310 H     7184  MOL7184     0.2052
  34553  O         48.8980  149.2010  173.7530 O.3   7185  MOL7185    -0.4105
  34554  H         48.4500  150.0550  173.9240 H     7185  MOL7185     0.2052
  34555  H         49.7880  149.3910  173.3560 H     7185  MOL7185     0.2052
  34556  O        196.4450  174.7230   41.8260 O.3   7186  MOL7186    -0.4105
  34557  H        197.2440  175.0060   41.3330 H     7186  MOL7186     0.2052
  34558  H        195.6940  175.3180   41.5680 H     7186  MOL7186     0.2052
  34559  O        171.6100  127.7930   80.7110 O.3   7187  MOL7187    -0.4105
  34560  H        171.3680  128.7430   80.6910 H     7187  MOL7187     0.2052
  34561  H        172.0020  127.5920   81.6000 H     7187  MOL7187     0.2052
  34562  O         58.0670  127.0930  240.4200 O.3   7188  MOL7188    -0.4105
  34563  H         57.1200  126.8400  240.4180 H     7188  MOL7188     0.2052
  34564  H         58.1270  128.0730  240.5610 H     7188  MOL7188     0.2052
  34565  O        111.0410   18.8820  174.5200 O.3   7189  MOL7189    -0.4105
  34566  H        111.9460   19.0660  174.1910 H     7189  MOL7189     0.2052
  34567  H        110.8870   19.4340  175.3300 H     7189  MOL7189     0.2052
  34568  O         52.0410    3.7710  270.4930 O.3   7190  MOL7190    -0.4105
  34569  H         51.2000    3.5760  270.0280 H     7190  MOL7190     0.2052
  34570  H         52.2210    4.7430  270.4150 H     7190  MOL7190     0.2052
  34571  O        172.3810   12.4620   76.1640 O.3   7191  MOL7191    -0.4105
  34572  H        172.3190   11.6220   76.6660 H     7191  MOL7191     0.2052
  34573  H        171.4610   12.7560   75.9350 H     7191  MOL7191     0.2052
  34574  O         25.2890  184.1450  213.9530 O.3   7192  MOL7192    -0.4105
  34575  H         24.8830  184.3750  213.0920 H     7192  MOL7192     0.2052
  34576  H         26.2680  184.2980  213.8860 H     7192  MOL7192     0.2052
  34577  O        117.1040  157.7100  139.5080 O.3   7193  MOL7193    -0.4105
  34578  H        116.6090  157.0980  138.9230 H     7193  MOL7193     0.2052
  34579  H        118.0580  157.6960  139.2360 H     7193  MOL7193     0.2052
  34580  O         76.7750  159.7420  107.7200 O.3   7194  MOL7194    -0.4105
  34581  H         76.2130  160.0320  108.4680 H     7194  MOL7194     0.2052
  34582  H         76.2830  159.0430  107.2150 H     7194  MOL7194     0.2052
  34583  O         19.6040   59.3970  116.8220 O.3   7195  MOL7195    -0.4105
  34584  H         18.9560   59.5100  117.5480 H     7195  MOL7195     0.2052
  34585  H         19.4080   58.5410  116.3600 H     7195  MOL7195     0.2052
  34586  O        181.5660  111.4410  174.1270 O.3   7196  MOL7196    -0.4105
  34587  H        181.8630  112.3430  174.3720 H     7196  MOL7196     0.2052
  34588  H        182.3260  110.9700  173.6970 H     7196  MOL7196     0.2052
  34589  O         57.4690  176.5770   20.7080 O.3   7197  MOL7197    -0.4105
  34590  H         56.5040  176.6620   20.5600 H     7197  MOL7197     0.2052
  34591  H         57.7090  175.6150   20.6530 H     7197  MOL7197     0.2052
  34592  O        151.5880  159.2650  172.1270 O.3   7198  MOL7198    -0.4105
  34593  H        152.0530  160.0860  171.8610 H     7198  MOL7198     0.2052
  34594  H        151.1860  159.4120  173.0220 H     7198  MOL7198     0.2052
  34595  O        144.3320    4.5740   17.2930 O.3   7199  MOL7199    -0.4105
  34596  H        144.8410    5.2680   16.8230 H     7199  MOL7199     0.2052
  34597  H        143.3770    4.6660   17.0420 H     7199  MOL7199     0.2052
  34598  O        163.0730   82.8380  158.3750 O.3   7200  MOL7200    -0.4105
  34599  H        162.9660   83.7910  158.5750 H     7200  MOL7200     0.2052
  34600  H        163.4200   82.3860  159.1880 H     7200  MOL7200     0.2052
  34601  O         71.2690  176.6040   99.3610 O.3   7201  MOL7201    -0.4105
  34602  H         70.2940  176.7000   99.3410 H     7201  MOL7201     0.2052
  34603  H         71.4890  175.6440   99.2410 H     7201  MOL7201     0.2052
  34604  O        176.6030    8.4460   64.8360 O.3   7202  MOL7202    -0.4105
  34605  H        177.3960    7.8700   64.8190 H     7202  MOL7202     0.2052
  34606  H        176.8990    9.3850   64.7080 H     7202  MOL7202     0.2052
  34607  O        142.0440   67.1300  277.8840 O.3   7203  MOL7203    -0.4105
  34608  H        141.1020   67.1400  278.1530 H     7203  MOL7203     0.2052
  34609  H        142.1460   67.7150  277.0890 H     7203  MOL7203     0.2052
  34610  O         16.8340   81.1180  168.6380 O.3   7204  MOL7204    -0.4105
  34611  H         17.6300   80.5460  168.6660 H     7204  MOL7204     0.2052
  34612  H         16.0330   80.5380  168.7190 H     7204  MOL7204     0.2052
  34613  O        188.9830   91.6550   74.8110 O.3   7205  MOL7205    -0.4105
  34614  H        189.0880   90.7480   74.4540 H     7205  MOL7205     0.2052
  34615  H        189.7130   92.2190   74.4470 H     7205  MOL7205     0.2052
  34616  O         47.8330   51.0560  195.3290 O.3   7206  MOL7206    -0.4105
  34617  H         47.4380   51.8840  195.6750 H     7206  MOL7206     0.2052
  34618  H         47.3710   50.8220  194.4820 H     7206  MOL7206     0.2052
  34619  O         99.2040  180.6660  156.8660 O.3   7207  MOL7207    -0.4105
  34620  H         98.3110  180.7630  157.2580 H     7207  MOL7207     0.2052
  34621  H         99.4920  179.7230  156.9810 H     7207  MOL7207     0.2052
  34622  O         59.8630  184.9770  279.0940 O.3   7208  MOL7208    -0.4105
  34623  H         59.5580  185.8880  279.2880 H     7208  MOL7208     0.2052
  34624  H         60.5970  185.0290  278.4290 H     7208  MOL7208     0.2052
  34625  O         70.0680  138.8920   46.2040 O.3   7209  MOL7209    -0.4105
  34626  H         70.8910  139.1140   45.7210 H     7209  MOL7209     0.2052
  34627  H         69.3040  139.3000   45.7190 H     7209  MOL7209     0.2052
  34628  O         25.8800   42.1430   61.5870 O.3   7210  MOL7210    -0.4105
  34629  H         26.1500   41.3940   61.0160 H     7210  MOL7210     0.2052
  34630  H         25.3410   41.7820   62.3380 H     7210  MOL7210     0.2052
  34631  O         56.3090  137.1660  209.0660 O.3   7211  MOL7211    -0.4105
  34632  H         55.6150  137.4480  209.6980 H     7211  MOL7211     0.2052
  34633  H         55.8670  136.7250  208.2960 H     7211  MOL7211     0.2052
  34634  O         85.6100  166.0650  224.8580 O.3   7212  MOL7212    -0.4105
  34635  H         86.0680  166.6950  224.2620 H     7212  MOL7212     0.2052
  34636  H         84.6940  166.4090  225.0280 H     7212  MOL7212     0.2052
  34637  O        130.4880   88.0150    3.4990 O.3   7213  MOL7213    -0.4105
  34638  H        130.1600   88.9200    3.6800 H     7213  MOL7213     0.2052
  34639  H        131.4570   87.9870    3.7140 H     7213  MOL7213     0.2052
  34640  O         41.7480   38.6320  226.5900 O.3   7214  MOL7214    -0.4105
  34641  H         42.4200   38.8980  227.2520 H     7214  MOL7214     0.2052
  34642  H         41.3200   39.4540  226.2350 H     7214  MOL7214     0.2052
  34643  O        190.4440   96.5030  280.1570 O.3   7215  MOL7215    -0.4105
  34644  H        191.4070   96.6850  280.1510 H     7215  MOL7215     0.2052
  34645  H        190.2140   96.0760  281.0230 H     7215  MOL7215     0.2052
  34646  O        184.1350  187.6330  243.9520 O.3   7216  MOL7216    -0.4105
  34647  H        184.8970  187.9590  244.4740 H     7216  MOL7216     0.2052
  34648  H        183.8360  188.3630  243.3500 H     7216  MOL7216     0.2052
  34649  O         10.6010   49.7920  265.9100 O.3   7217  MOL7217    -0.4105
  34650  H         11.0960   50.1950  265.1660 H     7217  MOL7217     0.2052
  34651  H         10.4170   48.8440  265.6840 H     7217  MOL7217     0.2052
  34652  O        109.0100  194.5150   19.0240 O.3   7218  MOL7218    -0.4105
  34653  H        108.3040  194.3570   19.6850 H     7218  MOL7218     0.2052
  34654  H        108.7070  194.1470   18.1530 H     7218  MOL7218     0.2052
  34655  O         12.9070  117.3170   59.0700 O.3   7219  MOL7219    -0.4105
  34656  H         12.6760  117.2220   60.0170 H     7219  MOL7219     0.2052
  34657  H         13.8400  117.6500   59.0100 H     7219  MOL7219     0.2052
  34658  O        174.8290   44.7830  199.5720 O.3   7220  MOL7220    -0.4105
  34659  H        175.4910   44.6750  198.8570 H     7220  MOL7220     0.2052
  34660  H        173.9680   45.0550  199.1600 H     7220  MOL7220     0.2052
  34661  O        168.2560  179.7160  195.5890 O.3   7221  MOL7221    -0.4105
  34662  H        168.8320  179.0190  195.2100 H     7221  MOL7221     0.2052
  34663  H        167.3460  179.3380  195.7050 H     7221  MOL7221     0.2052
  34664  O         51.4400   30.5460   19.0740 O.3   7222  MOL7222    -0.4105
  34665  H         50.4810   30.3450   19.0680 H     7222  MOL7222     0.2052
  34666  H         51.5500   31.5320   19.0600 H     7222  MOL7222     0.2052
  34667  O          0.6840  129.4280   54.1290 O.3   7223  MOL7223    -0.4105
  34668  H          1.5820  129.2700   54.4870 H     7223  MOL7223     0.2052
  34669  H          0.7100  129.2840   53.1480 H     7223  MOL7223     0.2052
  34670  O         81.8120   48.4000   70.2880 O.3   7224  MOL7224    -0.4105
  34671  H         81.3980   47.5460   70.0420 H     7224  MOL7224     0.2052
  34672  H         81.0980   49.0870   70.3410 H     7224  MOL7224     0.2052
  34673  O        148.9710   32.7730  267.1320 O.3   7225  MOL7225    -0.4105
  34674  H        148.5980   31.9430  267.4960 H     7225  MOL7225     0.2052
  34675  H        149.7230   33.0570  267.7130 H     7225  MOL7225     0.2052
  34676  O         82.1790  189.3400    8.4390 O.3   7226  MOL7226    -0.4105
  34677  H         81.2530  189.0380    8.3280 H     7226  MOL7226     0.2052
  34678  H         82.2070  190.3190    8.2820 H     7226  MOL7226     0.2052
  34679  O         75.3490   10.9090   89.2910 O.3   7227  MOL7227    -0.4105
  34680  H         75.8780   10.2450   89.7820 H     7227  MOL7227     0.2052
  34681  H         75.9240   11.7000   89.1230 H     7227  MOL7227     0.2052
  34682  O        155.6940  170.7410  186.2840 O.3   7228  MOL7228    -0.4105
  34683  H        156.0450  170.2600  187.0620 H     7228  MOL7228     0.2052
  34684  H        154.7030  170.6800  186.3020 H     7228  MOL7228     0.2052
  34685  O         49.6010  140.0490   61.5410 O.3   7229  MOL7229    -0.4105
  34686  H         48.8970  139.3720   61.4580 H     7229  MOL7229     0.2052
  34687  H         49.1850  140.9440   61.4370 H     7229  MOL7229     0.2052
  34688  O         55.8280  153.1220   22.2260 O.3   7230  MOL7230    -0.4105
  34689  H         56.2170  152.2290   22.1130 H     7230  MOL7230     0.2052
  34690  H         56.5670  153.7850   22.2180 H     7230  MOL7230     0.2052
  34691  O        192.7150   20.8880    5.8680 O.3   7231  MOL7231    -0.4105
  34692  H        193.5530   21.3840    5.7550 H     7231  MOL7231     0.2052
  34693  H        192.8260   19.9920    5.4580 H     7231  MOL7231     0.2052
  34694  O        179.8920   44.2870   41.3020 O.3   7232  MOL7232    -0.4105
  34695  H        179.8270   45.2410   41.0900 H     7232  MOL7232     0.2052
  34696  H        179.2160   44.0770   41.9980 H     7232  MOL7232     0.2052
  34697  O          2.0790   26.2810  126.3720 O.3   7233  MOL7233    -0.4105
  34698  H          1.1610   26.2960  126.7150 H     7233  MOL7233     0.2052
  34699  H          2.6420   25.7760  127.0140 H     7233  MOL7233     0.2052
  34700  O        185.4630   86.6120  202.7410 O.3   7234  MOL7234    -0.4105
  34701  H        186.3040   87.0290  203.0200 H     7234  MOL7234     0.2052
  34702  H        185.1390   86.0390  203.4830 H     7234  MOL7234     0.2052
  34703  O        191.9740  184.0620   40.4570 O.3   7235  MOL7235    -0.4105
  34704  H        192.4060  184.3890   41.2740 H     7235  MOL7235     0.2052
  34705  H        191.4000  184.7880   40.0980 H     7235  MOL7235     0.2052
  34706  O         25.3450    6.1360  123.3710 O.3   7236  MOL7236    -0.4105
  34707  H         26.1910    5.6430  123.3410 H     7236  MOL7236     0.2052
  34708  H         24.6020    5.4770  123.3630 H     7236  MOL7236     0.2052
  34709  O         46.4040  105.5460   63.5670 O.3   7237  MOL7237    -0.4105
  34710  H         45.4450  105.6560   63.7380 H     7237  MOL7237     0.2052
  34711  H         46.6000  105.8950   62.6590 H     7237  MOL7237     0.2052
  34712  O          3.1980  121.7750  125.1080 O.3   7238  MOL7238    -0.4105
  34713  H          2.6460  122.4560  124.6710 H     7238  MOL7238     0.2052
  34714  H          2.6380  121.3050  125.7790 H     7238  MOL7238     0.2052
  34715  O         83.3800   64.3970   67.2470 O.3   7239  MOL7239    -0.4105
  34716  H         84.3530   64.5060   67.2030 H     7239  MOL7239     0.2052
  34717  H         82.9670   65.3000   67.2440 H     7239  MOL7239     0.2052
  34718  O        178.1740   76.2760  150.2240 O.3   7240  MOL7240    -0.4105
  34719  H        178.7950   76.9820  150.5000 H     7240  MOL7240     0.2052
  34720  H        177.4680   76.1950  150.9170 H     7240  MOL7240     0.2052
  34721  O         20.3820  139.1680   94.2170 O.3   7241  MOL7241    -0.4105
  34722  H         20.4080  138.5440   93.4610 H     7241  MOL7241     0.2052
  34723  H         20.7880  140.0250   93.9250 H     7241  MOL7241     0.2052
  34724  O        160.0380  163.3640   17.6170 O.3   7242  MOL7242    -0.4105
  34725  H        160.4140  164.1780   18.0120 H     7242  MOL7242     0.2052
  34726  H        159.0510  163.4650   17.5780 H     7242  MOL7242     0.2052
  34727  O        113.5910  196.5340  149.7830 O.3   7243  MOL7243    -0.4105
  34728  H        113.4880  195.5620  149.8530 H     7243  MOL7243     0.2052
  34729  H        112.7020  196.9260  149.5780 H     7243  MOL7243     0.2052
  34730  O         97.1720   23.5540  213.8080 O.3   7244  MOL7244    -0.4105
  34731  H         96.6850   22.8030  214.2080 H     7244  MOL7244     0.2052
  34732  H         98.0520   23.6290  214.2600 H     7244  MOL7244     0.2052
  34733  O         70.1000  187.0920   88.5170 O.3   7245  MOL7245    -0.4105
  34734  H         69.2310  187.4600   88.2550 H     7245  MOL7245     0.2052
  34735  H         70.0040  186.1090   88.6150 H     7245  MOL7245     0.2052
  34736  O        112.8620   42.6130  294.7550 O.3   7246  MOL7246    -0.4105
  34737  H        113.8270   42.6530  294.9200 H     7246  MOL7246     0.2052
  34738  H        112.5380   41.7160  295.0280 H     7246  MOL7246     0.2052
  34739  O         81.7240  191.5180   87.9390 O.3   7247  MOL7247    -0.4105
  34740  H         82.4860  192.0020   88.3200 H     7247  MOL7247     0.2052
  34741  H         82.0150  190.5910   87.7360 H     7247  MOL7247     0.2052
  34742  O        165.8440  149.0470  155.5800 O.3   7248  MOL7248    -0.4105
  34743  H        166.4500  148.3600  155.9280 H     7248  MOL7248     0.2052
  34744  H        165.9670  149.8710  156.1190 H     7248  MOL7248     0.2052
  34745  O         73.1150   49.7670  172.7960 O.3   7249  MOL7249    -0.4105
  34746  H         72.3140   49.7790  172.2320 H     7249  MOL7249     0.2052
  34747  H         72.8570   49.4370  173.6960 H     7249  MOL7249     0.2052
  34748  O         55.5870  108.1970  267.5260 O.3   7250  MOL7250    -0.4105
  34749  H         54.8500  108.7410  267.8720 H     7250  MOL7250     0.2052
  34750  H         56.3810  108.7820  267.4170 H     7250  MOL7250     0.2052
  34751  O        183.1500  110.2410   33.0840 O.3   7251  MOL7251    -0.4105
  34752  H        182.9680  111.1960   32.9550 H     7251  MOL7251     0.2052
  34753  H        182.5520  109.9060   33.8020 H     7251  MOL7251     0.2052
  34754  O        194.9390    7.8040   22.1670 O.3   7252  MOL7252    -0.4105
  34755  H        195.2560    8.5530   22.7150 H     7252  MOL7252     0.2052
  34756  H        194.9660    6.9820   22.7220 H     7252  MOL7252     0.2052
  34757  O         20.0340   67.4190   73.5120 O.3   7253  MOL7253    -0.4105
  34758  H         19.8490   68.3760   73.6120 H     7253  MOL7253     0.2052
  34759  H         19.1660   66.9380   73.4720 H     7253  MOL7253     0.2052
  34760  O         68.0480   34.3650  114.0710 O.3   7254  MOL7254    -0.4105
  34761  H         67.7380   33.5000  113.7300 H     7254  MOL7254     0.2052
  34762  H         68.8600   34.6260  113.5630 H     7254  MOL7254     0.2052
  34763  O          1.4070   30.5650  284.8330 O.3   7255  MOL7255    -0.4105
  34764  H          0.6130   30.0510  285.0890 H     7255  MOL7255     0.2052
  34765  H          2.2110   30.0650  285.1300 H     7255  MOL7255     0.2052
  34766  O        156.4490   99.0430  276.6390 O.3   7256  MOL7256    -0.4105
  34767  H        157.0390   98.2690  276.5250 H     7256  MOL7256     0.2052
  34768  H        156.3820   99.2420  277.6090 H     7256  MOL7256     0.2052
  34769  O         18.3760  107.4930  256.4900 O.3   7257  MOL7257    -0.4105
  34770  H         18.2290  108.2930  257.0380 H     7257  MOL7257     0.2052
  34771  H         17.9770  107.6520  255.5960 H     7257  MOL7257     0.2052
  34772  O        112.4180    3.6310  109.7670 O.3   7258  MOL7258    -0.4105
  34773  H        111.4430    3.6910  109.8470 H     7258  MOL7258     0.2052
  34774  H        112.7880    4.5520  109.7840 H     7258  MOL7258     0.2052
  34775  O        163.2940  103.9560   10.5230 O.3   7259  MOL7259    -0.4105
  34776  H        163.5420  103.9280   11.4710 H     7259  MOL7259     0.2052
  34777  H        162.3840  103.5720   10.4290 H     7259  MOL7259     0.2052
  34778  O        129.1660  190.6270   61.7310 O.3   7260  MOL7260    -0.4105
  34779  H        129.1440  189.8250   61.1680 H     7260  MOL7260     0.2052
  34780  H        129.5580  190.3800   62.6080 H     7260  MOL7260     0.2052
  34781  O         42.5390   16.1060   71.5850 O.3   7261  MOL7261    -0.4105
  34782  H         41.7990   15.5130   71.3400 H     7261  MOL7261     0.2052
  34783  H         43.2910   15.9390   70.9600 H     7261  MOL7261     0.2052
  34784  O        143.0620   37.5130   75.4480 O.3   7262  MOL7262    -0.4105
  34785  H        143.7280   38.2330   75.4420 H     7262  MOL7262     0.2052
  34786  H        142.5060   37.6110   76.2640 H     7262  MOL7262     0.2052
  34787  O         43.7060  144.8310  200.8930 O.3   7263  MOL7263    -0.4105
  34788  H         44.3230  145.5600  201.1150 H     7263  MOL7263     0.2052
  34789  H         42.8510  145.2310  200.5880 H     7263  MOL7263     0.2052
  34790  O        118.6750   41.3390   34.4240 O.3   7264  MOL7264    -0.4105
  34791  H        119.0320   40.9370   33.6040 H     7264  MOL7264     0.2052
  34792  H        119.0570   40.8510   35.2000 H     7264  MOL7264     0.2052
  34793  O        113.3600  194.3840  131.7810 O.3   7265  MOL7265    -0.4105
  34794  H        114.1660  194.9350  131.6890 H     7265  MOL7265     0.2052
  34795  H        112.5740  194.9410  131.5430 H     7265  MOL7265     0.2052
  34796  O         33.3200   64.2320   72.2400 O.3   7266  MOL7266    -0.4105
  34797  H         33.1040   64.4670   71.3130 H     7266  MOL7266     0.2052
  34798  H         33.3090   65.0630   72.7820 H     7266  MOL7266     0.2052
  34799  O         36.8910   22.2600   27.5350 O.3   7267  MOL7267    -0.4105
  34800  H         35.9110   22.2470   27.5260 H     7267  MOL7267     0.2052
  34801  H         37.2140   21.3280   27.4240 H     7267  MOL7267     0.2052
  34802  O        184.9160   11.9860  158.0360 O.3   7268  MOL7268    -0.4105
  34803  H        185.8220   11.9730  158.4080 H     7268  MOL7268     0.2052
  34804  H        184.6170   12.9300  157.9790 H     7268  MOL7268     0.2052
  34805  O         90.1470   29.7740  161.4230 O.3   7269  MOL7269    -0.4105
  34806  H         89.4770   30.4890  161.4660 H     7269  MOL7269     0.2052
  34807  H         89.6710   28.9060  161.3660 H     7269  MOL7269     0.2052
  34808  O        198.0360  176.5960  220.6010 O.3   7270  MOL7270    -0.4105
  34809  H        198.9210  176.1890  220.7090 H     7270  MOL7270     0.2052
  34810  H        197.3750  175.8700  220.4590 H     7270  MOL7270     0.2052
  34811  O        144.3280  120.7260  197.0820 O.3   7271  MOL7271    -0.4105
  34812  H        143.6590  121.3800  196.7890 H     7271  MOL7271     0.2052
  34813  H        143.8510  119.9320  197.4380 H     7271  MOL7271     0.2052
  34814  O         88.5190  114.0950  203.2890 O.3   7272  MOL7272    -0.4105
  34815  H         88.1590  114.8220  202.7390 H     7272  MOL7272     0.2052
  34816  H         88.1190  114.1640  204.1950 H     7272  MOL7272     0.2052
  34817  O         22.9140   94.4280  172.6930 O.3   7273  MOL7273    -0.4105
  34818  H         22.5650   93.7540  172.0730 H     7273  MOL7273     0.2052
  34819  H         23.3360   93.9560  173.4580 H     7273  MOL7273     0.2052
  34820  O          3.4030   88.1440  234.2030 O.3   7274  MOL7274    -0.4105
  34821  H          2.6740   88.7990  234.2100 H     7274  MOL7274     0.2052
  34822  H          3.0040   87.2350  234.2200 H     7274  MOL7274     0.2052
  34823  O         48.6370  152.0040  156.9800 O.3   7275  MOL7275    -0.4105
  34824  H         48.6600  151.0250  157.0120 H     7275  MOL7275     0.2052
  34825  H         47.7000  152.2880  156.8180 H     7275  MOL7275     0.2052
  34826  O        182.8720   55.6720   76.3420 O.3   7276  MOL7276    -0.4105
  34827  H        182.4370   54.9290   75.8740 H     7276  MOL7276     0.2052
  34828  H        183.8480   55.6180   76.1730 H     7276  MOL7276     0.2052
  34829  O        181.8110  127.8110   46.8100 O.3   7277  MOL7277    -0.4105
  34830  H        181.9130  127.1620   46.0830 H     7277  MOL7277     0.2052
  34831  H        182.4780  127.5970   47.5130 H     7277  MOL7277     0.2052
  34832  O        116.1400  130.7930  177.6710 O.3   7278  MOL7278    -0.4105
  34833  H        116.0270  131.6330  178.1640 H     7278  MOL7278     0.2052
  34834  H        116.9780  130.3620  177.9810 H     7278  MOL7278     0.2052
  34835  O        135.8460   89.8820  226.7720 O.3   7279  MOL7279    -0.4105
  34836  H        135.0400   89.3400  226.9070 H     7279  MOL7279     0.2052
  34837  H        135.6070   90.8340  226.9130 H     7279  MOL7279     0.2052
  34838  O        116.4850   37.8280  207.7810 O.3   7280  MOL7280    -0.4105
  34839  H        117.3660   38.1170  207.4620 H     7280  MOL7280     0.2052
  34840  H        115.8350   37.9390  207.0400 H     7280  MOL7280     0.2052
  34841  O         78.8150   65.5810  226.0690 O.3   7281  MOL7281    -0.4105
  34842  H         79.4750   65.1340  225.4990 H     7281  MOL7281     0.2052
  34843  H         77.9990   65.0170  226.1010 H     7281  MOL7281     0.2052
  34844  O        153.9900   42.5860   17.3440 O.3   7282  MOL7282    -0.4105
  34845  H        154.1840   43.2370   16.6370 H     7282  MOL7282     0.2052
  34846  H        153.0100   42.5800   17.4990 H     7282  MOL7282     0.2052
  34847  O         96.5800  176.4580  127.7540 O.3   7283  MOL7283    -0.4105
  34848  H         96.0570  177.0260  127.1500 H     7283  MOL7283     0.2052
  34849  H         96.8940  177.0170  128.5120 H     7283  MOL7283     0.2052
  34850  O        171.1730  186.8440  212.3430 O.3   7284  MOL7284    -0.4105
  34851  H        170.2870  187.2360  212.1970 H     7284  MOL7284     0.2052
  34852  H        171.7980  187.5730  212.5950 H     7284  MOL7284     0.2052
  34853  O         37.3610  160.2990   37.1250 O.3   7285  MOL7285    -0.4105
  34854  H         38.2440  160.6600   37.3490 H     7285  MOL7285     0.2052
  34855  H         36.6810  160.9940   37.3250 H     7285  MOL7285     0.2052
  34856  O        142.1650  104.6510   75.5170 O.3   7286  MOL7286    -0.4105
  34857  H        142.4170  103.7130   75.3860 H     7286  MOL7286     0.2052
  34858  H        141.2520  104.7800   75.1530 H     7286  MOL7286     0.2052
  34859  O        104.6280   23.6060  234.4710 O.3   7287  MOL7287    -0.4105
  34860  H        105.3360   23.1180  234.0010 H     7287  MOL7287     0.2052
  34861  H        104.4530   24.4500  233.9800 H     7287  MOL7287     0.2052
  34862  O        176.0510  184.6240  106.5610 O.3   7288  MOL7288    -0.4105
  34863  H        175.5980  184.2950  107.3650 H     7288  MOL7288     0.2052
  34864  H        175.8470  185.5900  106.4630 H     7288  MOL7288     0.2052
  34865  O        149.8350   24.1650  259.9340 O.3   7289  MOL7289    -0.4105
  34866  H        150.0950   23.5280  259.2370 H     7289  MOL7289     0.2052
  34867  H        149.3720   24.9280  259.5010 H     7289  MOL7289     0.2052
  34868  O         52.4200  195.9910  233.8760 O.3   7290  MOL7290    -0.4105
  34869  H         53.2440  195.9250  234.4020 H     7290  MOL7290     0.2052
  34870  H         51.6500  195.9720  234.5010 H     7290  MOL7290     0.2052
  34871  O        178.0310  142.3120   60.0970 O.3   7291  MOL7291    -0.4105
  34872  H        178.5650  141.5370   60.3690 H     7291  MOL7291     0.2052
  34873  H        177.1360  141.9890   59.8150 H     7291  MOL7291     0.2052
  34874  O        163.3860   11.0110  260.4550 O.3   7292  MOL7292    -0.4105
  34875  H        162.5960   10.8390  259.9010 H     7292  MOL7292     0.2052
  34876  H        163.0770   11.3040  261.3520 H     7292  MOL7292     0.2052
  34877  O        109.6430   95.2230  253.8670 O.3   7293  MOL7293    -0.4105
  34878  H        109.5310   94.3440  253.4480 H     7293  MOL7293     0.2052
  34879  H        110.4400   95.1870  254.4570 H     7293  MOL7293     0.2052
  34880  O        167.4670  136.8840  170.4950 O.3   7294  MOL7294    -0.4105
  34881  H        167.5330  137.8620  170.4960 H     7294  MOL7294     0.2052
  34882  H        168.3110  136.5160  170.8640 H     7294  MOL7294     0.2052
  34883  O        112.1890   23.1240   78.5090 O.3   7295  MOL7295    -0.4105
  34884  H        111.7170   23.1290   79.3680 H     7295  MOL7295     0.2052
  34885  H        113.1640   23.1520   78.6910 H     7295  MOL7295     0.2052
  34886  O         73.3320  137.4810  297.5700 O.3   7296  MOL7296    -0.4105
  34887  H         74.2620  137.3430  297.8480 H     7296  MOL7296     0.2052
  34888  H         73.2570  138.3920  297.1820 H     7296  MOL7296     0.2052
  34889  O          4.9710   89.5350   35.1560 O.3   7297  MOL7297    -0.4105
  34890  H          4.5310   89.7370   34.3040 H     7297  MOL7297     0.2052
  34891  H          5.4620   88.6780   35.0560 H     7297  MOL7297     0.2052
  34892  O        163.9460   31.2860   32.8910 O.3   7298  MOL7298    -0.4105
  34893  H        164.8580   31.2450   33.2480 H     7298  MOL7298     0.2052
  34894  H        163.7160   32.2380   32.7350 H     7298  MOL7298     0.2052
  34895  O         64.8670   87.8050  194.9680 O.3   7299  MOL7299    -0.4105
  34896  H         64.0960   87.8270  194.3630 H     7299  MOL7299     0.2052
  34897  H         65.2560   88.7170  195.0080 H     7299  MOL7299     0.2052
  34898  O         42.4540  136.6500  163.8350 O.3   7300  MOL7300    -0.4105
  34899  H         42.8670  135.8830  164.2840 H     7300  MOL7300     0.2052
  34900  H         41.4750  136.4970  163.7960 H     7300  MOL7300     0.2052
  34901  O         24.1550   27.1470   34.3740 O.3   7301  MOL7301    -0.4105
  34902  H         23.7640   26.2490   34.3730 H     7301  MOL7301     0.2052
  34903  H         23.4140   27.8080   34.3740 H     7301  MOL7301     0.2052
  34904  O         92.5330  120.7300  235.5120 O.3   7302  MOL7302    -0.4105
  34905  H         91.7510  120.2400  235.8400 H     7302  MOL7302     0.2052
  34906  H         92.2420  121.3180  234.7680 H     7302  MOL7302     0.2052
  34907  O        102.3220   65.7620  274.3850 O.3   7303  MOL7303    -0.4105
  34908  H        103.2550   66.0390  274.5010 H     7303  MOL7303     0.2052
  34909  H        102.3150   64.8670  273.9580 H     7303  MOL7303     0.2052
  34910  O        179.6400  166.5450   16.7120 O.3   7304  MOL7304    -0.4105
  34911  H        178.8850  167.0590   17.0680 H     7304  MOL7304     0.2052
  34912  H        180.4310  167.1430   16.6720 H     7304  MOL7304     0.2052
  34913  O         10.2520  159.9620   83.0460 O.3   7305  MOL7305    -0.4105
  34914  H         10.9570  160.6240   82.8830 H     7305  MOL7305     0.2052
  34915  H         10.6710  159.0630   83.0710 H     7305  MOL7305     0.2052
  34916  O        128.4900  192.2920   81.7690 O.3   7306  MOL7306    -0.4105
  34917  H        127.7480  192.4600   81.1510 H     7306  MOL7306     0.2052
  34918  H        128.8810  193.1660   82.0290 H     7306  MOL7306     0.2052
  34919  O         55.9040  103.1660  237.7540 O.3   7307  MOL7307    -0.4105
  34920  H         55.1180  103.7300  237.9130 H     7307  MOL7307     0.2052
  34921  H         56.6730  103.7580  237.5440 H     7307  MOL7307     0.2052
  34922  O         64.4180   53.3300  183.5180 O.3   7308  MOL7308    -0.4105
  34923  H         64.6080   53.4360  184.4740 H     7308  MOL7308     0.2052
  34924  H         64.5080   52.3690  183.2880 H     7308  MOL7308     0.2052
  34925  O         70.4010  108.9740  281.8350 O.3   7309  MOL7309    -0.4105
  34926  H         70.2220  108.8180  280.8840 H     7309  MOL7309     0.2052
  34927  H         71.1620  108.3960  282.1060 H     7309  MOL7309     0.2052
  34928  O         58.4370  166.5200  260.4050 O.3   7310  MOL7310    -0.4105
  34929  H         58.2200  166.9090  259.5320 H     7310  MOL7310     0.2052
  34930  H         59.4250  166.4970  260.4980 H     7310  MOL7310     0.2052
  34931  O        137.5700  153.0440   11.2240 O.3   7311  MOL7311    -0.4105
  34932  H        138.1690  152.6120   10.5790 H     7311  MOL7311     0.2052
  34933  H        136.6850  153.1680   10.7920 H     7311  MOL7311     0.2052
  34934  O         14.3330   82.0770   56.4310 O.3   7312  MOL7312    -0.4105
  34935  H         15.1440   82.6250   56.4890 H     7312  MOL7312     0.2052
  34936  H         14.4710   81.3940   55.7250 H     7312  MOL7312     0.2052
  34937  O         53.7010   30.8930  167.3130 O.3   7313  MOL7313    -0.4105
  34938  H         52.8500   30.4810  167.5730 H     7313  MOL7313     0.2052
  34939  H         53.6870   31.8420  167.6020 H     7313  MOL7313     0.2052
  34940  O        198.6090   55.6880  222.3110 O.3   7314  MOL7314    -0.4105
  34941  H        198.1630   54.8180  222.3790 H     7314  MOL7314     0.2052
  34942  H        198.2490   56.2770  223.0240 H     7314  MOL7314     0.2052
  34943  O         24.4950  188.0520  134.7770 O.3   7315  MOL7315    -0.4105
  34944  H         25.0190  187.8930  135.5900 H     7315  MOL7315     0.2052
  34945  H         23.8650  188.7970  134.9550 H     7315  MOL7315     0.2052
  34946  O        184.8880  197.0390   85.1810 O.3   7316  MOL7316    -0.4105
  34947  H        184.9380  196.7320   84.2510 H     7316  MOL7316     0.2052
  34948  H        184.2020  197.7540   85.2350 H     7316  MOL7316     0.2052
  34949  O         21.1420   52.3330  141.4090 O.3   7317  MOL7317    -0.4105
  34950  H         20.5470   51.5540  141.4080 H     7317  MOL7317     0.2052
  34951  H         20.6080   53.1320  141.1620 H     7317  MOL7317     0.2052
  34952  O         14.9300   83.3500  130.3530 O.3   7318  MOL7318    -0.4105
  34953  H         14.8630   82.3860  130.5200 H     7318  MOL7318     0.2052
  34954  H         15.2000   83.7940  131.1980 H     7318  MOL7318     0.2052
  34955  O         34.4870  138.3370  251.0300 O.3   7319  MOL7319    -0.4105
  34956  H         35.3470  138.5450  251.4500 H     7319  MOL7319     0.2052
  34957  H         34.6130  138.3390  250.0460 H     7319  MOL7319     0.2052
  34958  O        149.0870   50.1180  238.4190 O.3   7320  MOL7320    -0.4105
  34959  H        148.7620   51.0420  238.3890 H     7320  MOL7320     0.2052
  34960  H        149.8520   50.0780  239.0500 H     7320  MOL7320     0.2052
  34961  O         50.9560  198.3930  223.3760 O.3   7321  MOL7321    -0.4105
  34962  H         50.7600  198.8080  224.2420 H     7321  MOL7321     0.2052
  34963  H         51.9330  198.4550  223.2170 H     7321  MOL7321     0.2052
  34964  O         31.7210  171.0390   12.3920 O.3   7322  MOL7322    -0.4105
  34965  H         32.6460  171.3580   12.4580 H     7322  MOL7322     0.2052
  34966  H         31.1390  171.8140   12.1820 H     7322  MOL7322     0.2052
  34967  O         14.8000  112.5420  135.8020 O.3   7323  MOL7323    -0.4105
  34968  H         14.1710  111.9090  136.2080 H     7323  MOL7323     0.2052
  34969  H         14.3270  113.4020  135.6600 H     7323  MOL7323     0.2052
  34970  O        125.2100  162.9270  124.5400 O.3   7324  MOL7324    -0.4105
  34971  H        125.2840  163.5060  125.3270 H     7324  MOL7324     0.2052
  34972  H        124.3200  162.4890  124.5600 H     7324  MOL7324     0.2052
  34973  O        194.0910   86.6790  222.0540 O.3   7325  MOL7325    -0.4105
  34974  H        194.3050   85.7520  221.8200 H     7325  MOL7325     0.2052
  34975  H        194.4430   87.2690  221.3380 H     7325  MOL7325     0.2052
  34976  O         89.8950  186.4850  263.5940 O.3   7326  MOL7326    -0.4105
  34977  H         90.4950  187.1640  263.9680 H     7326  MOL7326     0.2052
  34978  H         90.2820  185.5910  263.7840 H     7326  MOL7326     0.2052
  34979  O        142.6260    3.3490  205.8480 O.3   7327  MOL7327    -0.4105
  34980  H        141.6820    3.5620  206.0050 H     7327  MOL7327     0.2052
  34981  H        142.7290    2.3630  205.8680 H     7327  MOL7327     0.2052
  34982  O          5.6840  110.3890   39.9280 O.3   7328  MOL7328    -0.4105
  34983  H          6.2010  111.1320   39.5540 H     7328  MOL7328     0.2052
  34984  H          5.0080  110.7640   40.5510 H     7328  MOL7328     0.2052
  34985  O        134.7310    3.4540  259.5480 O.3   7329  MOL7329    -0.4105
  34986  H        134.3070    2.5710  259.5850 H     7329  MOL7329     0.2052
  34987  H        134.0450    4.1170  259.2760 H     7329  MOL7329     0.2052
  34988  O        162.0830   72.6740  106.1690 O.3   7330  MOL7330    -0.4105
  34989  H        162.8470   73.2800  106.0690 H     7330  MOL7330     0.2052
  34990  H        162.3930   71.7500  105.9800 H     7330  MOL7330     0.2052
  34991  O        152.1470  107.3560  178.4520 O.3   7331  MOL7331    -0.4105
  34992  H        151.8170  106.5060  178.8110 H     7331  MOL7331     0.2052
  34993  H        151.7610  108.0930  178.9940 H     7331  MOL7331     0.2052
  34994  O         42.5460    4.7750   52.0230 O.3   7332  MOL7332    -0.4105
  34995  H         43.4640    4.4770   52.1940 H     7332  MOL7332     0.2052
  34996  H         41.9830    3.9730   51.8640 H     7332  MOL7332     0.2052
  34997  O          4.9850   34.5470  113.5950 O.3   7333  MOL7333    -0.4105
  34998  H          5.4390   35.3580  113.9050 H     7333  MOL7333     0.2052
  34999  H          4.0070   34.6840  113.6880 H     7333  MOL7333     0.2052
  35000  O         37.1720  192.7310  266.4300 O.3   7334  MOL7334    -0.4105
  35001  H         37.8640  193.2820  266.0070 H     7334  MOL7334     0.2052
  35002  H         36.3290  193.2540  266.4500 H     7334  MOL7334     0.2052
  35003  O        176.3680    4.3470  154.1940 O.3   7335  MOL7335    -0.4105
  35004  H        175.4100    4.4990  154.3350 H     7335  MOL7335     0.2052
  35005  H        176.8230    5.2290  154.1810 H     7335  MOL7335     0.2052
  35006  O        147.4170  124.9870  230.2620 O.3   7336  MOL7336    -0.4105
  35007  H        147.1430  124.3810  229.5430 H     7336  MOL7336     0.2052
  35008  H        148.1870  124.5780  230.7360 H     7336  MOL7336     0.2052
  35009  O         78.3080   81.9330  227.6130 O.3   7337  MOL7337    -0.4105
  35010  H         77.9470   82.0210  226.7060 H     7337  MOL7337     0.2052
  35011  H         78.7960   81.0710  227.6700 H     7337  MOL7337     0.2052
  35012  O        148.4050  185.5550   71.1310 O.3   7338  MOL7338    -0.4105
  35013  H        149.1620  186.0770   71.4710 H     7338  MOL7338     0.2052
  35014  H        148.6750  185.1420   70.2700 H     7338  MOL7338     0.2052
  35015  O        125.0350   97.8750  195.3880 O.3   7339  MOL7339    -0.4105
  35016  H        125.1410   98.6720  195.9470 H     7339  MOL7339     0.2052
  35017  H        124.3740   98.0800  194.6770 H     7339  MOL7339     0.2052
  35018  O        171.7620   84.8630   47.2680 O.3   7340  MOL7340    -0.4105
  35019  H        171.1440   84.9220   48.0270 H     7340  MOL7340     0.2052
  35020  H        171.2360   84.6430   46.4560 H     7340  MOL7340     0.2052
  35021  O         15.1850  137.0370   57.2600 O.3   7341  MOL7341    -0.4105
  35022  H         15.4090  137.2280   58.1950 H     7341  MOL7341     0.2052
  35023  H         14.7550  137.8420   56.8720 H     7341  MOL7341     0.2052
  35024  O        116.6960  169.5280  169.1750 O.3   7342  MOL7342    -0.4105
  35025  H        117.0430  168.7240  168.7360 H     7342  MOL7342     0.2052
  35026  H        115.7590  169.6640  168.8770 H     7342  MOL7342     0.2052
  35027  O        197.6500   14.3440  178.9330 O.3   7343  MOL7343    -0.4105
  35028  H        196.7030   14.1070  179.0190 H     7343  MOL7343     0.2052
  35029  H        198.0840   13.6760  178.3410 H     7343  MOL7343     0.2052
  35030  O        153.0360   99.1170   91.3860 O.3   7344  MOL7344    -0.4105
  35031  H        152.8040  100.0690   91.3510 H     7344  MOL7344     0.2052
  35032  H        152.2070   98.5900   91.2410 H     7344  MOL7344     0.2052
  35033  O        121.6280  154.3270   36.9160 O.3   7345  MOL7345    -0.4105
  35034  H        121.2970  153.4040   36.9180 H     7345  MOL7345     0.2052
  35035  H        122.5420  154.3300   37.3030 H     7345  MOL7345     0.2052
  35036  O         39.1910   67.6210  271.9760 O.3   7346  MOL7346    -0.4105
  35037  H         39.2740   66.8190  272.5320 H     7346  MOL7346     0.2052
  35038  H         38.2290   67.7650  271.7790 H     7346  MOL7346     0.2052
  35039  O        177.8490   13.6580  206.9260 O.3   7347  MOL7347    -0.4105
  35040  H        177.6710   12.6940  206.9230 H     7347  MOL7347     0.2052
  35041  H        178.8320   13.7920  206.9360 H     7347  MOL7347     0.2052
  35042  O         59.0950  144.9560  270.8220 O.3   7348  MOL7348    -0.4105
  35043  H         59.3500  145.9030  270.8050 H     7348  MOL7348     0.2052
  35044  H         58.1280  144.8910  270.6100 H     7348  MOL7348     0.2052
  35045  O         39.7260  199.4370   89.4770 O.3   7349  MOL7349    -0.4105
  35046  H         38.8960  199.3840   88.9580 H     7349  MOL7349     0.2052
  35047  H         39.7610  198.6570   90.0880 H     7349  MOL7349     0.2052
  35048  O         98.8880  187.3110  262.7210 O.3   7350  MOL7350    -0.4105
  35049  H         99.8470  187.1260  262.6430 H     7350  MOL7350     0.2052
  35050  H         98.4000  186.4490  262.6630 H     7350  MOL7350     0.2052
  35051  O         36.2150   50.6320  224.5050 O.3   7351  MOL7351    -0.4105
  35052  H         35.5910   50.0860  223.9840 H     7351  MOL7351     0.2052
  35053  H         36.6650   50.0430  225.1660 H     7351  MOL7351     0.2052
  35054  O        124.6580  148.8540  194.2420 O.3   7352  MOL7352    -0.4105
  35055  H        123.9930  148.1540  194.4100 H     7352  MOL7352     0.2052
  35056  H        125.1030  149.0710  195.1020 H     7352  MOL7352     0.2052
  35057  O        171.3130  188.8120   37.7360 O.3   7353  MOL7353    -0.4105
  35058  H        172.1000  188.6600   37.1720 H     7353  MOL7353     0.2052
  35059  H        170.5040  188.5750   37.2110 H     7353  MOL7353     0.2052
  35060  O        149.7610   25.9090   99.8790 O.3   7354  MOL7354    -0.4105
  35061  H        149.7620   25.6820   98.9260 H     7354  MOL7354     0.2052
  35062  H        150.1110   26.8330   99.9780 H     7354  MOL7354     0.2052
  35063  O         26.9330   11.8770    7.7430 O.3   7355  MOL7355    -0.4105
  35064  H         27.8520   11.7410    7.4310 H     7355  MOL7355     0.2052
  35065  H         26.6510   11.0670    8.2420 H     7355  MOL7355     0.2052
  35066  O        137.6360   37.9330  289.5730 O.3   7356  MOL7356    -0.4105
  35067  H        138.5320   38.3250  289.6310 H     7356  MOL7356     0.2052
  35068  H        136.9890   38.6620  289.3880 H     7356  MOL7356     0.2052
  35069  O         21.8670  133.1320  158.9820 O.3   7357  MOL7357    -0.4105
  35070  H         21.6620  133.9240  158.4430 H     7357  MOL7357     0.2052
  35071  H         21.0110  132.7250  159.2740 H     7357  MOL7357     0.2052
  35072  O        190.6410  156.5860   85.2510 O.3   7358  MOL7358    -0.4105
  35073  H        189.7830  156.4630   84.7940 H     7358  MOL7358     0.2052
  35074  H        190.9020  155.7200   85.6590 H     7358  MOL7358     0.2052
  35075  O        168.8490  141.5720  289.7320 O.3   7359  MOL7359    -0.4105
  35076  H        169.1240  142.3400  289.1880 H     7359  MOL7359     0.2052
  35077  H        168.7160  141.8840  290.6650 H     7359  MOL7359     0.2052
  35078  O        139.7760  123.4170  169.9040 O.3   7360  MOL7360    -0.4105
  35079  H        138.8780  123.6730  169.6070 H     7360  MOL7360     0.2052
  35080  H        139.6910  122.9270  170.7630 H     7360  MOL7360     0.2052
  35081  O        177.2010  130.8910  171.3970 O.3   7361  MOL7361    -0.4105
  35082  H        177.7630  130.1860  171.0110 H     7361  MOL7361     0.2052
  35083  H        176.2970  130.8230  170.9940 H     7361  MOL7361     0.2052
  35084  O        193.2770  118.0420   98.5380 O.3   7362  MOL7362    -0.4105
  35085  H        193.3770  117.3290   97.8740 H     7362  MOL7362     0.2052
  35086  H        192.7790  118.7910   98.1170 H     7362  MOL7362     0.2052
  35087  O         90.1820   46.3510  190.8750 O.3   7363  MOL7363    -0.4105
  35088  H         89.3550   46.6940  191.2740 H     7363  MOL7363     0.2052
  35089  H         90.8400   47.0930  190.8380 H     7363  MOL7363     0.2052
  35090  O        151.6120  172.5610   32.5260 O.3   7364  MOL7364    -0.4105
  35091  H        152.4630  173.0320   32.6490 H     7364  MOL7364     0.2052
  35092  H        151.7050  171.6480   32.9040 H     7364  MOL7364     0.2052
  35093  O         60.8700   81.4510  178.0640 O.3   7365  MOL7365    -0.4105
  35094  H         61.8340   81.3750  177.9050 H     7365  MOL7365     0.2052
  35095  H         60.6290   82.4140  178.0520 H     7365  MOL7365     0.2052
  35096  O         47.4340   69.5480  152.6400 O.3   7366  MOL7366    -0.4105
  35097  H         48.3810   69.7090  152.4430 H     7366  MOL7366     0.2052
  35098  H         47.2800   68.5680  152.6440 H     7366  MOL7366     0.2052
  35099  O        103.7890  171.0740  206.8610 O.3   7367  MOL7367    -0.4105
  35100  H        104.4420  171.8010  206.9270 H     7367  MOL7367     0.2052
  35101  H        102.8940  171.4730  206.7040 H     7367  MOL7367     0.2052
  35102  O        146.6870  167.1670  163.9190 O.3   7368  MOL7368    -0.4105
  35103  H        146.8320  166.2300  163.6670 H     7368  MOL7368     0.2052
  35104  H        147.0790  167.7420  163.2130 H     7368  MOL7368     0.2052
  35105  O         16.1930  150.8600   31.9230 O.3   7369  MOL7369    -0.4105
  35106  H         17.0590  150.9900   31.4840 H     7369  MOL7369     0.2052
  35107  H         15.7660  150.0530   31.5340 H     7369  MOL7369     0.2052
  35108  O         29.9000   43.9270  129.6690 O.3   7370  MOL7370    -0.4105
  35109  H         30.6560   43.4630  129.2540 H     7370  MOL7370     0.2052
  35110  H         30.1960   44.2810  130.5470 H     7370  MOL7370     0.2052
  35111  O        194.4390   17.2290  126.5800 O.3   7371  MOL7371    -0.4105
  35112  H        195.3290   16.9930  126.9160 H     7371  MOL7371     0.2052
  35113  H        194.1980   16.5880  125.8620 H     7371  MOL7371     0.2052
  35114  O        195.9210  131.2180   54.6320 O.3   7372  MOL7372    -0.4105
  35115  H        196.7470  130.9550   54.1740 H     7372  MOL7372     0.2052
  35116  H        195.3800  130.4010   54.7900 H     7372  MOL7372     0.2052
  35117  O        175.3560  156.3890  111.5230 O.3   7373  MOL7373    -0.4105
  35118  H        176.2630  156.7210  111.6860 H     7373  MOL7373     0.2052
  35119  H        175.2260  156.3070  110.5430 H     7373  MOL7373     0.2052
  35120  O        117.1720  172.7890  166.9580 O.3   7374  MOL7374    -0.4105
  35121  H        118.0980  173.1060  166.9180 H     7374  MOL7374     0.2052
  35122  H        117.1790  171.8520  167.2850 H     7374  MOL7374     0.2052
  35123  O         10.1250   49.2940  257.7110 O.3   7375  MOL7375    -0.4105
  35124  H          9.3800   48.8690  258.1860 H     7375  MOL7375     0.2052
  35125  H         10.7560   48.5840  257.4250 H     7375  MOL7375     0.2052
  35126  O        142.5390  198.1830  222.6760 O.3   7376  MOL7376    -0.4105
  35127  H        142.3110  199.1270  222.5500 H     7376  MOL7376     0.2052
  35128  H        143.4960  198.0610  222.4440 H     7376  MOL7376     0.2052
  35129  O         33.0980   96.9530   97.3600 O.3   7377  MOL7377    -0.4105
  35130  H         32.9300   96.9630   96.3950 H     7377  MOL7377     0.2052
  35131  H         32.8150   97.8280   97.7340 H     7377  MOL7377     0.2052
  35132  O        137.7240   86.6170    2.1460 O.3   7378  MOL7378    -0.4105
  35133  H        138.0820   86.0720    1.4140 H     7378  MOL7378     0.2052
  35134  H        137.5610   86.0240    2.9240 H     7378  MOL7378     0.2052
  35135  O          3.2200   40.3610  119.5220 O.3   7379  MOL7379    -0.4105
  35136  H          3.7800   39.7540  120.0480 H     7379  MOL7379     0.2052
  35137  H          2.2720   40.2010  119.7680 H     7379  MOL7379     0.2052
  35138  O         12.5140  165.2980  104.8760 O.3   7380  MOL7380    -0.4105
  35139  H         12.5410  166.2270  104.5660 H     7380  MOL7380     0.2052
  35140  H         12.8900  164.7210  104.1620 H     7380  MOL7380     0.2052
  35141  O         30.3670   31.4210  131.5160 O.3   7381  MOL7381    -0.4105
  35142  H         29.5180   31.9070  131.4480 H     7381  MOL7381     0.2052
  35143  H         31.1030   32.0850  131.5430 H     7381  MOL7381     0.2052
  35144  O        184.0710   18.5780  142.2250 O.3   7382  MOL7382    -0.4105
  35145  H        184.4810   17.7230  141.9760 H     7382  MOL7382     0.2052
  35146  H        184.6050   19.3090  141.8190 H     7382  MOL7382     0.2052
  35147  O         26.1470  128.8110  232.9650 O.3   7383  MOL7383    -0.4105
  35148  H         26.9720  128.8000  232.4350 H     7383  MOL7383     0.2052
  35149  H         25.7500  127.9020  232.9410 H     7383  MOL7383     0.2052
  35150  O         34.4190   49.3950  253.3480 O.3   7384  MOL7384    -0.4105
  35151  H         33.9610   48.5290  253.3650 H     7384  MOL7384     0.2052
  35152  H         35.3270   49.2580  252.9720 H     7384  MOL7384     0.2052
  35153  O        158.4670  182.6610  136.8420 O.3   7385  MOL7385    -0.4105
  35154  H        158.0390  182.0420  137.4700 H     7385  MOL7385     0.2052
  35155  H        159.2910  182.2310  136.4940 H     7385  MOL7385     0.2052
  35156  O        146.0250   75.7960  192.4180 O.3   7386  MOL7386    -0.4105
  35157  H        146.7820   76.3720  192.1820 H     7386  MOL7386     0.2052
  35158  H        145.2210   76.3670  192.5240 H     7386  MOL7386     0.2052
  35159  O        123.7050   25.6350  255.6590 O.3   7387  MOL7387    -0.4105
  35160  H        124.1170   26.2490  255.0150 H     7387  MOL7387     0.2052
  35161  H        124.3410   24.8930  255.8300 H     7387  MOL7387     0.2052
  35162  O         46.0720   36.5840  142.3810 O.3   7388  MOL7388    -0.4105
  35163  H         46.8600   36.0180  142.5220 H     7388  MOL7388     0.2052
  35164  H         45.4910   36.5130  143.1830 H     7388  MOL7388     0.2052
  35165  O         21.7110  160.2720   15.0430 O.3   7389  MOL7389    -0.4105
  35166  H         21.8190  160.0270   14.1010 H     7389  MOL7389     0.2052
  35167  H         21.0110  159.6900   15.4370 H     7389  MOL7389     0.2052
  35168  O        152.2790   29.2580  225.9070 O.3   7390  MOL7390    -0.4105
  35169  H        152.7160   28.3960  226.0720 H     7390  MOL7390     0.2052
  35170  H        152.4480   29.8470  226.6870 H     7390  MOL7390     0.2052
  35171  O         43.0050   34.3870  199.7050 O.3   7391  MOL7391    -0.4105
  35172  H         43.5900   33.6230  199.5180 H     7391  MOL7391     0.2052
  35173  H         43.5470   35.2160  199.6420 H     7391  MOL7391     0.2052
  35174  O        143.8640   47.1680  182.3420 O.3   7392  MOL7392    -0.4105
  35175  H        144.3040   48.0320  182.4870 H     7392  MOL7392     0.2052
  35176  H        143.2480   47.2600  181.5700 H     7392  MOL7392     0.2052
  35177  O         26.6920   79.2680   92.8570 O.3   7393  MOL7393    -0.4105
  35178  H         26.8920   80.0000   93.4770 H     7393  MOL7393     0.2052
  35179  H         25.7750   78.9400   93.0500 H     7393  MOL7393     0.2052
  35180  O         93.8530   22.6510   82.6080 O.3   7394  MOL7394    -0.4105
  35181  H         93.2430   23.3170   82.9870 H     7394  MOL7394     0.2052
  35182  H         94.2550   23.0310   81.7850 H     7394  MOL7394     0.2052
  35183  O         22.5870  111.9020  257.1170 O.3   7395  MOL7395    -0.4105
  35184  H         21.8520  112.1030  257.7330 H     7395  MOL7395     0.2052
  35185  H         22.6640  112.6510  256.4710 H     7395  MOL7395     0.2052
  35186  O         75.9710  131.4900   19.2660 O.3   7396  MOL7396    -0.4105
  35187  H         76.2250  131.7560   20.1740 H     7396  MOL7396     0.2052
  35188  H         76.5110  132.0190   18.6240 H     7396  MOL7396     0.2052
  35189  O        198.7790   50.5010  158.3760 O.3   7397  MOL7397    -0.4105
  35190  H        199.7570   50.4940  158.4300 H     7397  MOL7397     0.2052
  35191  H        198.4730   49.5790  158.1720 H     7397  MOL7397     0.2052
  35192  O         91.4130   39.1880  244.8580 O.3   7398  MOL7398    -0.4105
  35193  H         91.6470   38.4610  244.2440 H     7398  MOL7398     0.2052
  35194  H         91.6910   38.9230  245.7730 H     7398  MOL7398     0.2052
  35195  O         29.4450   22.4180  238.5320 O.3   7399  MOL7399    -0.4105
  35196  H         28.5470   22.5410  238.1610 H     7399  MOL7399     0.2052
  35197  H         30.0760   22.9810  238.0130 H     7399  MOL7399     0.2052
  35198  O         41.8080   90.1320   55.1180 O.3   7400  MOL7400    -0.4105
  35199  H         41.9290   89.4310   55.7910 H     7400  MOL7400     0.2052
  35200  H         42.0820   89.7680   54.2360 H     7400  MOL7400     0.2052
  35201  O        102.9400    2.4950  252.2460 O.3   7401  MOL7401    -0.4105
  35202  H        103.6070    2.8280  251.6110 H     7401  MOL7401     0.2052
  35203  H        102.8700    1.5110  252.1370 H     7401  MOL7401     0.2052
  35204  O         15.7980   69.4830  222.0830 O.3   7402  MOL7402    -0.4105
  35205  H         15.7780   68.5220  222.2750 H     7402  MOL7402     0.2052
  35206  H         14.8670   69.8230  222.1010 H     7402  MOL7402     0.2052
  35207  O        179.8050   65.4250  182.5790 O.3   7403  MOL7403    -0.4105
  35208  H        179.4750   64.8170  181.8850 H     7403  MOL7403     0.2052
  35209  H        179.1340   66.1440  182.7060 H     7403  MOL7403     0.2052
  35210  O         85.1370   89.3640   50.1680 O.3   7404  MOL7404    -0.4105
  35211  H         85.9330   89.0470   49.6920 H     7404  MOL7404     0.2052
  35212  H         84.3590   89.2860   49.5580 H     7404  MOL7404     0.2052
  35213  O        156.5730  181.3000  193.9430 O.3   7405  MOL7405    -0.4105
  35214  H        156.7810  181.1500  192.9970 H     7405  MOL7405     0.2052
  35215  H        156.7470  180.4570  194.4360 H     7405  MOL7405     0.2052
  35216  O        127.4050  138.3370  217.5610 O.3   7406  MOL7406    -0.4105
  35217  H        126.8670  138.2080  218.3700 H     7406  MOL7406     0.2052
  35218  H        126.8850  138.0010  216.7860 H     7406  MOL7406     0.2052
  35219  O        124.3720   87.2940  239.2490 O.3   7407  MOL7407    -0.4105
  35220  H        124.3130   86.3170  239.1870 H     7407  MOL7407     0.2052
  35221  H        125.1970   87.5230  239.7510 H     7407  MOL7407     0.2052
  35222  O        126.0720  170.6160   36.9630 O.3   7408  MOL7408    -0.4105
  35223  H        126.2130  171.4280   36.4330 H     7408  MOL7408     0.2052
  35224  H        125.3010  170.7700   37.5680 H     7408  MOL7408     0.2052
  35225  O         15.8070  127.8460  110.9230 O.3   7409  MOL7409    -0.4105
  35226  H         15.4680  128.1540  111.7890 H     7409  MOL7409     0.2052
  35227  H         16.7100  128.2360  110.7870 H     7409  MOL7409     0.2052
  35228  O        120.3760  171.7050  270.5810 O.3   7410  MOL7410    -0.4105
  35229  H        120.5430  172.5290  270.0790 H     7410  MOL7410     0.2052
  35230  H        119.3980  171.5360  270.5850 H     7410  MOL7410     0.2052
  35231  O         91.5610   92.1250  200.5570 O.3   7411  MOL7411    -0.4105
  35232  H         92.4910   92.2350  200.2660 H     7411  MOL7411     0.2052
  35233  H         91.5600   91.5890  201.3930 H     7411  MOL7411     0.2052
  35234  O         60.7340  118.9590   61.5790 O.3   7412  MOL7412    -0.4105
  35235  H         60.8440  118.9890   62.5520 H     7412  MOL7412     0.2052
  35236  H         61.4370  119.5260   61.1690 H     7412  MOL7412     0.2052
  35237  O        158.2710  157.0390   80.3150 O.3   7413  MOL7413    -0.4105
  35238  H        158.2680  157.1190   79.3380 H     7413  MOL7413     0.2052
  35239  H        158.4460  157.9360   80.7000 H     7413  MOL7413     0.2052
  35240  O        193.1060  151.9830  121.7240 O.3   7414  MOL7414    -0.4105
  35241  H        192.5640  151.2460  122.0740 H     7414  MOL7414     0.2052
  35242  H        194.0580  151.7920  121.9290 H     7414  MOL7414     0.2052
  35243  O        100.7670   36.2770  194.8310 O.3   7415  MOL7415    -0.4105
  35244  H        100.5910   37.0800  195.3650 H     7415  MOL7415     0.2052
  35245  H         99.8980   35.8430  194.6280 H     7415  MOL7415     0.2052
  35246  O        194.9340  103.8480  154.1470 O.3   7416  MOL7416    -0.4105
  35247  H        194.1110  103.6380  154.6370 H     7416  MOL7416     0.2052
  35248  H        194.6840  104.1510  153.2360 H     7416  MOL7416     0.2052
  35249  O        188.4750    5.5180  141.2010 O.3   7417  MOL7417    -0.4105
  35250  H        189.2520    5.7040  140.6330 H     7417  MOL7417     0.2052
  35251  H        188.3920    4.5340  141.3010 H     7417  MOL7417     0.2052
  35252  O         28.8020   53.0220  190.0300 O.3   7418  MOL7418    -0.4105
  35253  H         28.6930   53.4980  190.8800 H     7418  MOL7418     0.2052
  35254  H         28.1010   53.3410  189.4040 H     7418  MOL7418     0.2052
  35255  O         47.6040  110.7290  191.1980 O.3   7419  MOL7419    -0.4105
  35256  H         46.9010  110.9430  190.5500 H     7419  MOL7419     0.2052
  35257  H         47.2940  111.0100  192.0980 H     7419  MOL7419     0.2052
  35258  O          5.8210   95.0610   43.8600 O.3   7420  MOL7420    -0.4105
  35259  H          6.2420   95.7910   43.3610 H     7420  MOL7420     0.2052
  35260  H          6.4370   94.2830   43.8500 H     7420  MOL7420     0.2052
  35261  O          6.6640   47.7910  126.7250 O.3   7421  MOL7421    -0.4105
  35262  H          7.2700   47.8110  125.9540 H     7421  MOL7421     0.2052
  35263  H          6.1200   48.6200  126.7130 H     7421  MOL7421     0.2052
  35264  O         48.0120   17.8800   44.1550 O.3   7422  MOL7422    -0.4105
  35265  H         48.2320   16.9250   44.1530 H     7422  MOL7422     0.2052
  35266  H         47.2550   18.0230   44.7790 H     7422  MOL7422     0.2052
  35267  O         31.8330   72.2610  110.1910 O.3   7423  MOL7423    -0.4105
  35268  H         30.8630   72.2560  110.3330 H     7423  MOL7423     0.2052
  35269  H         32.2630   72.6440  110.9990 H     7423  MOL7423     0.2052
  35270  O        177.8170   61.1050   56.2770 O.3   7424  MOL7424    -0.4105
  35271  H        177.2820   60.8690   57.0640 H     7424  MOL7424     0.2052
  35272  H        178.5250   61.7390   56.5620 H     7424  MOL7424     0.2052
  35273  O        192.5050   95.9520    3.0890 O.3   7425  MOL7425    -0.4105
  35274  H        191.7240   95.7300    2.5400 H     7425  MOL7425     0.2052
  35275  H        193.0130   95.1170    3.2590 H     7425  MOL7425     0.2052
  35276  O        122.7190    3.0600   86.9460 O.3   7426  MOL7426    -0.4105
  35277  H        123.3220    3.4230   86.2640 H     7426  MOL7426     0.2052
  35278  H        123.2710    2.6590   87.6660 H     7426  MOL7426     0.2052
  35279  O        141.9840   17.8380  113.4700 O.3   7427  MOL7427    -0.4105
  35280  H        141.1190   17.4140  113.6540 H     7427  MOL7427     0.2052
  35281  H        142.6260   17.1300  113.2020 H     7427  MOL7427     0.2052
  35282  O         45.6320  143.6720    3.6070 O.3   7428  MOL7428    -0.4105
  35283  H         44.8930  143.1480    3.9830 H     7428  MOL7428     0.2052
  35284  H         46.0080  144.2390    4.3290 H     7428  MOL7428     0.2052
  35285  O        174.8040  102.0460   45.0350 O.3   7429  MOL7429    -0.4105
  35286  H        175.6740  101.6830   45.3030 H     7429  MOL7429     0.2052
  35287  H        174.4790  101.5290   44.2520 H     7429  MOL7429     0.2052
  35288  O        199.2430  180.9800   71.1270 O.3   7430  MOL7430    -0.4105
  35289  H        199.7310  181.6590   71.6390 H     7430  MOL7430     0.2052
  35290  H        198.4060  180.7660   71.6150 H     7430  MOL7430     0.2052
  35291  O         46.0300   70.3610  185.4270 O.3   7431  MOL7431    -0.4105
  35292  H         46.5160   69.7420  184.8430 H     7431  MOL7431     0.2052
  35293  H         46.3910   71.2730  185.2830 H     7431  MOL7431     0.2052
  35294  O         76.5590   21.5400  191.1560 O.3   7432  MOL7432    -0.4105
  35295  H         76.3980   22.2220  191.8410 H     7432  MOL7432     0.2052
  35296  H         76.2240   21.8860  190.2880 H     7432  MOL7432     0.2052
  35297  O        158.5280   50.1580  229.0100 O.3   7433  MOL7433    -0.4105
  35298  H        158.7560   51.0670  229.2970 H     7433  MOL7433     0.2052
  35299  H        159.1320   49.5250  229.4770 H     7433  MOL7433     0.2052
  35300  O        106.9330   20.5940    6.2230 O.3   7434  MOL7434    -0.4105
  35301  H        107.0400   19.6720    5.9080 H     7434  MOL7434     0.2052
  35302  H        107.1310   21.2050    5.4660 H     7434  MOL7434     0.2052
  35303  O         44.5100   57.4750  192.2560 O.3   7435  MOL7435    -0.4105
  35304  H         44.0760   57.2200  193.0970 H     7435  MOL7435     0.2052
  35305  H         43.8060   57.7650  191.6190 H     7435  MOL7435     0.2052
  35306  O         44.8810  136.8110  143.5790 O.3   7436  MOL7436    -0.4105
  35307  H         44.3640  137.5950  143.8600 H     7436  MOL7436     0.2052
  35308  H         45.7690  136.8490  144.0210 H     7436  MOL7436     0.2052
  35309  O        192.5160  150.2720  188.4140 O.3   7437  MOL7437    -0.4105
  35310  H        193.0100  150.5750  187.6230 H     7437  MOL7437     0.2052
  35311  H        192.9310  150.6860  189.2150 H     7437  MOL7437     0.2052
  35312  O         31.7000  117.0370  120.4740 O.3   7438  MOL7438    -0.4105
  35313  H         32.6380  116.9160  120.7320 H     7438  MOL7438     0.2052
  35314  H         31.4710  116.3450  119.8010 H     7438  MOL7438     0.2052
  35315  O         35.4910  109.1820  229.3820 O.3   7439  MOL7439    -0.4105
  35316  H         35.5530  109.9510  229.9860 H     7439  MOL7439     0.2052
  35317  H         34.5970  108.7680  229.4970 H     7439  MOL7439     0.2052
  35318  O         96.7730  132.3800  297.6630 O.3   7440  MOL7440    -0.4105
  35319  H         96.2830  132.4460  296.8170 H     7440  MOL7440     0.2052
  35320  H         96.8060  133.2830  298.0740 H     7440  MOL7440     0.2052
  35321  O          5.8040  159.7680   56.2300 O.3   7441  MOL7441    -0.4105
  35322  H          6.3730  160.5640   56.1770 H     7441  MOL7441     0.2052
  35323  H          4.8580  160.0650   56.2720 H     7441  MOL7441     0.2052
  35324  O        150.7120   63.2180  298.4020 O.3   7442  MOL7442    -0.4105
  35325  H        150.2640   62.3790  298.1670 H     7442  MOL7442     0.2052
  35326  H        151.1540   63.5720  297.5870 H     7442  MOL7442     0.2052
  35327  O        102.4780   98.1890  229.5320 O.3   7443  MOL7443    -0.4105
  35328  H        102.7980   98.6750  228.7440 H     7443  MOL7443     0.2052
  35329  H        103.2660   97.8260  230.0140 H     7443  MOL7443     0.2052
  35330  O         35.6180  169.0740  241.0230 O.3   7444  MOL7444    -0.4105
  35331  H         36.2400  168.7090  241.6860 H     7444  MOL7444     0.2052
  35332  H         35.3270  168.3340  240.4290 H     7444  MOL7444     0.2052
  35333  O        156.9880   58.2950   64.1690 O.3   7445  MOL7445    -0.4105
  35334  H        157.6230   59.0360   64.0770 H     7445  MOL7445     0.2052
  35335  H        157.5050   57.4500   64.2350 H     7445  MOL7445     0.2052
  35336  O         38.9860   46.8140   60.4750 O.3   7446  MOL7446    -0.4105
  35337  H         38.4590   47.5500   60.8500 H     7446  MOL7446     0.2052
  35338  H         38.9750   46.8960   59.4860 H     7446  MOL7446     0.2052
  35339  O         43.9870   40.6080   24.7380 O.3   7447  MOL7447    -0.4105
  35340  H         44.4960   41.2570   25.2670 H     7447  MOL7447     0.2052
  35341  H         43.2260   41.0830   24.3130 H     7447  MOL7447     0.2052
  35342  O         16.8520   95.8740  279.7240 O.3   7448  MOL7448    -0.4105
  35343  H         16.3950   96.7200  279.9120 H     7448  MOL7448     0.2052
  35344  H         16.2250   95.1320  279.9260 H     7448  MOL7448     0.2052
  35345  O        181.1180    7.1630  101.3630 O.3   7449  MOL7449    -0.4105
  35346  H        180.5710    6.8970  102.1320 H     7449  MOL7449     0.2052
  35347  H        180.9350    6.5320  100.6190 H     7449  MOL7449     0.2052
  35348  O        171.1310  176.7000  196.8650 O.3   7450  MOL7450    -0.4105
  35349  H        170.9230  176.3370  197.7510 H     7450  MOL7450     0.2052
  35350  H        171.2990  177.6740  196.9590 H     7450  MOL7450     0.2052
  35351  O        191.1620  146.8440  161.3810 O.3   7451  MOL7451    -0.4105
  35352  H        190.8390  145.9570  161.1150 H     7451  MOL7451     0.2052
  35353  H        191.6780  147.2260  160.6250 H     7451  MOL7451     0.2052
  35354  O        196.3340  196.3280  141.3990 O.3   7452  MOL7452    -0.4105
  35355  H        196.9840  197.0520  141.2820 H     7452  MOL7452     0.2052
  35356  H        195.4280  196.6920  141.2210 H     7452  MOL7452     0.2052
  35357  O          6.9980  129.0340  250.1720 O.3   7453  MOL7453    -0.4105
  35358  H          6.3710  129.7490  249.9360 H     7453  MOL7453     0.2052
  35359  H          6.6320  128.1760  249.8340 H     7453  MOL7453     0.2052
  35360  O         85.7760  141.4390   54.3250 O.3   7454  MOL7454    -0.4105
  35361  H         85.2050  140.9970   54.9880 H     7454  MOL7454     0.2052
  35362  H         86.1430  140.7440   53.7190 H     7454  MOL7454     0.2052
  35363  O        155.3500   63.8230   42.0290 O.3   7455  MOL7455    -0.4105
  35364  H        156.1180   63.4150   42.4800 H     7455  MOL7455     0.2052
  35365  H        155.5780   64.7670   41.8230 H     7455  MOL7455     0.2052
  35366  O        106.0350   48.2500  202.5280 O.3   7456  MOL7456    -0.4105
  35367  H        105.5690   47.4480  202.8470 H     7456  MOL7456     0.2052
  35368  H        105.7340   49.0210  203.0750 H     7456  MOL7456     0.2052
  35369  O        193.1040  109.7360  274.0480 O.3   7457  MOL7457    -0.4105
  35370  H        192.5780  110.4790  274.4120 H     7457  MOL7457     0.2052
  35371  H        192.4760  109.0680  273.6680 H     7457  MOL7457     0.2052
  35372  O         93.3050  170.2760  178.2050 O.3   7458  MOL7458    -0.4105
  35373  H         92.5200  170.1290  177.6370 H     7458  MOL7458     0.2052
  35374  H         93.0880  170.9950  178.8530 H     7458  MOL7458     0.2052
  35375  O        189.5150   70.7080  177.4920 O.3   7459  MOL7459    -0.4105
  35376  H        189.5170   71.5810  177.0450 H     7459  MOL7459     0.2052
  35377  H        188.6730   70.6270  178.0100 H     7459  MOL7459     0.2052
  35378  O         62.8650    2.2610   81.9830 O.3   7460  MOL7460    -0.4105
  35379  H         63.1640    2.6900   82.8130 H     7460  MOL7460     0.2052
  35380  H         63.5390    1.5790   81.7270 H     7460  MOL7460     0.2052
  35381  O         17.3650   29.4100   24.2810 O.3   7461  MOL7461    -0.4105
  35382  H         16.5240   29.7840   24.6170 H     7461  MOL7461     0.2052
  35383  H         18.0380   30.1390   24.2470 H     7461  MOL7461     0.2052
  35384  O         93.3030  174.7380  129.3210 O.3   7462  MOL7462    -0.4105
  35385  H         92.5420  174.5690  128.7280 H     7462  MOL7462     0.2052
  35386  H         94.0390  174.1240  129.0650 H     7462  MOL7462     0.2052
  35387  O        177.2740  178.4320   32.3440 O.3   7463  MOL7463    -0.4105
  35388  H        176.6910  179.2080   32.2100 H     7463  MOL7463     0.2052
  35389  H        178.2130  178.7220   32.2050 H     7463  MOL7463     0.2052
  35390  O        124.0670  108.2880  208.3120 O.3   7464  MOL7464    -0.4105
  35391  H        124.9610  108.6550  208.4790 H     7464  MOL7464     0.2052
  35392  H        123.6020  108.1960  209.1840 H     7464  MOL7464     0.2052
  35393  O        196.8620   59.3180   45.0610 O.3   7465  MOL7465    -0.4105
  35394  H        196.0290   59.1830   44.5620 H     7465  MOL7465     0.2052
  35395  H        196.6320   59.6510   45.9660 H     7465  MOL7465     0.2052
  35396  O        199.4440    4.3800  236.9660 O.3   7466  MOL7466    -0.4105
  35397  H        198.6320    3.8500  237.1080 H     7466  MOL7466     0.2052
  35398  H        199.1980    5.3410  237.0040 H     7466  MOL7466     0.2052
  35399  O        181.9050  135.7760  289.5200 O.3   7467  MOL7467    -0.4105
  35400  H        181.5900  136.4370  290.1720 H     7467  MOL7467     0.2052
  35401  H        182.4590  136.2460  288.8440 H     7467  MOL7467     0.2052
  35402  O        193.3600  137.3180  299.5640 O.3   7468  MOL7468    -0.4105
  35403  H        192.3840  137.3850  299.6210 H     7468  MOL7468     0.2052
  35404  H        193.5850  136.6530  298.8620 H     7468  MOL7468     0.2052
  35405  O        134.6620  116.3290  204.2280 O.3   7469  MOL7469    -0.4105
  35406  H        133.8020  116.1870  204.6760 H     7469  MOL7469     0.2052
  35407  H        134.5880  115.9880  203.2990 H     7469  MOL7469     0.2052
  35408  O         45.4640   14.5530   27.0150 O.3   7470  MOL7470    -0.4105
  35409  H         44.8560   14.7750   26.2790 H     7470  MOL7470     0.2052
  35410  H         46.1990   15.2200   27.0230 H     7470  MOL7470     0.2052
  35411  O         76.4640   17.2350    5.9640 O.3   7471  MOL7471    -0.4105
  35412  H         76.9170   16.8240    6.7300 H     7471  MOL7471     0.2052
  35413  H         75.7820   16.5980    5.6290 H     7471  MOL7471     0.2052
  35414  O        123.7310   61.4920  209.3410 O.3   7472  MOL7472    -0.4105
  35415  H        123.0450   61.5340  208.6420 H     7472  MOL7472     0.2052
  35416  H        124.6200   61.5810  208.9090 H     7472  MOL7472     0.2052
  35417  O         36.3520  170.7220   61.6630 O.3   7473  MOL7473    -0.4105
  35418  H         36.9990  171.4490   61.5420 H     7473  MOL7473     0.2052
  35419  H         36.0450  170.4280   60.7660 H     7473  MOL7473     0.2052
  35420  O          2.9420   97.9420  227.2610 O.3   7474  MOL7474    -0.4105
  35421  H          3.6650   98.5860  227.1080 H     7474  MOL7474     0.2052
  35422  H          3.1760   97.3950  228.0560 H     7474  MOL7474     0.2052
  35423  O         76.8050   17.0810  248.9900 O.3   7475  MOL7475    -0.4105
  35424  H         76.8530   18.0320  249.2210 H     7475  MOL7475     0.2052
  35425  H         76.7220   17.0040  248.0040 H     7475  MOL7475     0.2052
  35426  O         74.6740   94.4050   50.5810 O.3   7476  MOL7476    -0.4105
  35427  H         74.3300   94.7070   49.7140 H     7476  MOL7476     0.2052
  35428  H         75.2030   93.5780   50.4340 H     7476  MOL7476     0.2052
  35429  O         10.6080   43.9510   61.6760 O.3   7477  MOL7477    -0.4105
  35430  H         10.9340   44.5500   62.3810 H     7477  MOL7477     0.2052
  35431  H         10.8680   43.0230   61.9120 H     7477  MOL7477     0.2052
  35432  O         93.4680  153.6620   20.0270 O.3   7478  MOL7478    -0.4105
  35433  H         92.9520  153.2270   19.3160 H     7478  MOL7478     0.2052
  35434  H         93.0230  154.5190   20.2540 H     7478  MOL7478     0.2052
  35435  O        158.5590   28.9890  138.8820 O.3   7479  MOL7479    -0.4105
  35436  H        158.8930   28.5960  138.0490 H     7479  MOL7479     0.2052
  35437  H        158.8160   29.9470  138.8990 H     7479  MOL7479     0.2052
  35438  O         52.0630  161.6350  116.0500 O.3   7480  MOL7480    -0.4105
  35439  H         52.0130  161.5410  117.0240 H     7480  MOL7480     0.2052
  35440  H         53.0080  161.8080  115.8020 H     7480  MOL7480     0.2052
  35441  O         31.7230  152.5120  133.3020 O.3   7481  MOL7481    -0.4105
  35442  H         31.0320  153.1260  132.9750 H     7481  MOL7481     0.2052
  35443  H         31.2760  151.6850  133.6220 H     7481  MOL7481     0.2052
  35444  O         28.1980   59.0340  296.2610 O.3   7482  MOL7482    -0.4105
  35445  H         27.3670   58.5360  296.1140 H     7482  MOL7482     0.2052
  35446  H         28.1980   59.3670  297.1960 H     7482  MOL7482     0.2052
  35447  O        176.7050    5.1940   71.4600 O.3   7483  MOL7483    -0.4105
  35448  H        177.6120    4.9050   71.6920 H     7483  MOL7483     0.2052
  35449  H        176.0680    4.7310   72.0630 H     7483  MOL7483     0.2052
  35450  O         35.8680   58.3550   29.7420 O.3   7484  MOL7484    -0.4105
  35451  H         35.5960   58.6830   30.6250 H     7484  MOL7484     0.2052
  35452  H         36.2070   59.1250   29.2160 H     7484  MOL7484     0.2052
  35453  O        148.6230  117.9420   15.8070 O.3   7485  MOL7485    -0.4105
  35454  H        147.9680  118.4440   16.3350 H     7485  MOL7485     0.2052
  35455  H        149.3250  118.5740   15.5010 H     7485  MOL7485     0.2052
  35456  O        152.3630   76.8530    6.2840 O.3   7486  MOL7486    -0.4105
  35457  H        153.1460   76.3040    6.0680 H     7486  MOL7486     0.2052
  35458  H        151.6860   76.7220    5.5710 H     7486  MOL7486     0.2052
  35459  O        180.0590  164.9740  266.8390 O.3   7487  MOL7487    -0.4105
  35460  H        179.6210  164.1000  266.9160 H     7487  MOL7487     0.2052
  35461  H        180.1370  165.3630  267.7490 H     7487  MOL7487     0.2052
  35462  O         43.5540  122.6370   41.7780 O.3   7488  MOL7488    -0.4105
  35463  H         42.6270  122.3250   41.7230 H     7488  MOL7488     0.2052
  35464  H         43.5480  123.6290   41.7950 H     7488  MOL7488     0.2052
  35465  O        140.5340   86.4260  168.4860 O.3   7489  MOL7489    -0.4105
  35466  H        139.6620   86.5200  168.9230 H     7489  MOL7489     0.2052
  35467  H        141.0140   87.2910  168.5630 H     7489  MOL7489     0.2052
  35468  O        162.7950  179.3440  188.3310 O.3   7490  MOL7490    -0.4105
  35469  H        162.2320  178.5560  188.4860 H     7490  MOL7490     0.2052
  35470  H        162.2090  180.0940  188.0520 H     7490  MOL7490     0.2052
  35471  O        197.4350   21.0320  295.1600 O.3   7491  MOL7491    -0.4105
  35472  H        196.7040   21.6750  295.2790 H     7491  MOL7491     0.2052
  35473  H        197.0670   20.2210  294.7220 H     7491  MOL7491     0.2052
  35474  O        153.3190   98.6600   27.6610 O.3   7492  MOL7492    -0.4105
  35475  H        152.6390   98.0800   28.0630 H     7492  MOL7492     0.2052
  35476  H        153.8300   98.1250   26.9990 H     7492  MOL7492     0.2052
  35477  O        162.6790   93.0850    9.1720 O.3   7493  MOL7493    -0.4105
  35478  H        163.0750   92.2990    9.6030 H     7493  MOL7493     0.2052
  35479  H        162.4150   93.7280    9.8800 H     7493  MOL7493     0.2052
  35480  O         39.9780  107.2750  138.3710 O.3   7494  MOL7494    -0.4105
  35481  H         39.0540  107.1470  138.6730 H     7494  MOL7494     0.2052
  35482  H         39.9620  107.4770  137.4000 H     7494  MOL7494     0.2052
  35483  O        146.1380   82.6360   78.3560 O.3   7495  MOL7495    -0.4105
  35484  H        145.3840   82.1180   78.0070 H     7495  MOL7495     0.2052
  35485  H        146.9270   82.0370   78.4120 H     7495  MOL7495     0.2052
  35486  O         58.3390  167.2850  226.7400 O.3   7496  MOL7496    -0.4105
  35487  H         57.8750  168.1420  226.8420 H     7496  MOL7496     0.2052
  35488  H         57.7710  166.6890  226.1860 H     7496  MOL7496     0.2052
  35489  O         76.1240   36.6450   35.0240 O.3   7497  MOL7497    -0.4105
  35490  H         76.6770   37.0690   34.3340 H     7497  MOL7497     0.2052
  35491  H         75.7870   37.3540   35.6300 H     7497  MOL7497     0.2052
  35492  O        186.2240  142.8650   17.3400 O.3   7498  MOL7498    -0.4105
  35493  H        186.2490  142.3550   18.1760 H     7498  MOL7498     0.2052
  35494  H        185.2750  143.0030   17.0880 H     7498  MOL7498     0.2052
  35495  O         74.3330   27.3230  124.0440 O.3   7499  MOL7499    -0.4105
  35496  H         74.5020   26.5330  124.5980 H     7499  MOL7499     0.2052
  35497  H         73.3660   27.5390  124.0980 H     7499  MOL7499     0.2052
  35498  O        127.4060   48.9850   27.0670 O.3   7500  MOL7500    -0.4105
  35499  H        126.7770   48.6760   26.3820 H     7500  MOL7500     0.2052
  35500  H        128.2970   48.5950   26.8700 H     7500  MOL7500     0.2052
  35501  O        173.9590  112.0050  192.0690 O.3   7501  MOL7501    -0.4105
  35502  H        174.2020  111.9490  193.0170 H     7501  MOL7501     0.2052
  35503  H        173.9540  111.0870  191.6950 H     7501  MOL7501     0.2052
  35504  O        185.8280  189.3740  267.3270 O.3   7502  MOL7502    -0.4105
  35505  H        186.5480  188.8240  267.6990 H     7502  MOL7502     0.2052
  35506  H        185.1790  188.7740  266.8770 H     7502  MOL7502     0.2052
  35507  O         43.9970   26.1850  224.4410 O.3   7503  MOL7503    -0.4105
  35508  H         44.9470   25.9850  224.3070 H     7503  MOL7503     0.2052
  35509  H         43.7930   27.0430  223.9870 H     7503  MOL7503     0.2052
  35510  O        123.8880    8.2210  227.7180 O.3   7504  MOL7504    -0.4105
  35511  H        123.7220    8.0200  226.7740 H     7504  MOL7504     0.2052
  35512  H        123.0770    8.6570  228.0900 H     7504  MOL7504     0.2052
  35513  O        166.7300   86.7030   42.0990 O.3   7505  MOL7505    -0.4105
  35514  H        167.5570   86.5200   42.5910 H     7505  MOL7505     0.2052
  35515  H        166.0320   86.0760   42.4210 H     7505  MOL7505     0.2052
  35516  O        173.8130    4.1190   84.8350 O.3   7506  MOL7506    -0.4105
  35517  H        174.6020    3.6800   85.2160 H     7506  MOL7506     0.2052
  35518  H        174.0500    5.0600   84.6290 H     7506  MOL7506     0.2052
  35519  O         17.0780  149.2710  108.0230 O.3   7507  MOL7507    -0.4105
  35520  H         16.3280  148.8060  108.4490 H     7507  MOL7507     0.2052
  35521  H         16.7820  150.1890  107.7900 H     7507  MOL7507     0.2052
  35522  O        111.4290   44.2610  224.4430 O.3   7508  MOL7508    -0.4105
  35523  H        111.6110   43.8940  223.5530 H     7508  MOL7508     0.2052
  35524  H        110.7420   43.6920  224.8790 H     7508  MOL7508     0.2052
  35525  O        137.9630   96.7050  192.6680 O.3   7509  MOL7509    -0.4105
  35526  H        137.3140   96.6670  193.4020 H     7509  MOL7509     0.2052
  35527  H        138.7560   96.1670  192.9260 H     7509  MOL7509     0.2052
  35528  O        175.3260    8.4390  100.9930 O.3   7510  MOL7510    -0.4105
  35529  H        175.6620    9.0730  100.3250 H     7510  MOL7510     0.2052
  35530  H        175.4030    7.5230  100.6180 H     7510  MOL7510     0.2052
  35531  O         82.2980   74.9080   68.2900 O.3   7511  MOL7511    -0.4105
  35532  H         82.4230   75.7450   68.7860 H     7511  MOL7511     0.2052
  35533  H         83.1330   74.7170   67.7880 H     7511  MOL7511     0.2052
  35534  O        199.1550   99.7230  142.1130 O.3   7512  MOL7512    -0.4105
  35535  H        199.9900   99.2980  142.4020 H     7512  MOL7512     0.2052
  35536  H        198.5290   99.7320  142.8830 H     7512  MOL7512     0.2052
  35537  O        111.4970  161.1480   77.5170 O.3   7513  MOL7513    -0.4105
  35538  H        112.4220  161.3910   77.7300 H     7513  MOL7513     0.2052
  35539  H        111.1890  161.7220   76.7690 H     7513  MOL7513     0.2052
  35540  O         40.9370   93.7060   17.3890 O.3   7514  MOL7514    -0.4105
  35541  H         40.6090   94.5170   16.9450 H     7514  MOL7514     0.2052
  35542  H         41.7170   93.3660   16.8780 H     7514  MOL7514     0.2052
  35543  O        149.6230   91.0750  181.6510 O.3   7515  MOL7515    -0.4105
  35544  H        148.6590   91.1610  181.8050 H     7515  MOL7515     0.2052
  35545  H        149.7970   90.1770  181.2660 H     7515  MOL7515     0.2052
  35546  O         92.5520  178.9540  260.3730 O.3   7516  MOL7516    -0.4105
  35547  H         91.6770  179.0120  259.9360 H     7516  MOL7516     0.2052
  35548  H         92.9520  178.0730  260.1510 H     7516  MOL7516     0.2052
  35549  O         78.9420  139.3210  241.9430 O.3   7517  MOL7517    -0.4105
  35550  H         79.3780  138.5980  241.4460 H     7517  MOL7517     0.2052
  35551  H         78.7070  138.9790  242.8450 H     7517  MOL7517     0.2052
  35552  O        130.3750   57.3210  272.8900 O.3   7518  MOL7518    -0.4105
  35553  H        129.8050   58.0620  272.5940 H     7518  MOL7518     0.2052
  35554  H        131.2770   57.4480  272.4970 H     7518  MOL7518     0.2052
  35555  O          7.4910  113.9210   67.0820 O.3   7519  MOL7519    -0.4105
  35556  H          8.4110  114.2570   67.1040 H     7519  MOL7519     0.2052
  35557  H          6.8760  114.7010   67.0810 H     7519  MOL7519     0.2052
  35558  O         12.3720  161.5070  110.3330 O.3   7520  MOL7520    -0.4105
  35559  H         11.7610  160.8960  110.7960 H     7520  MOL7520     0.2052
  35560  H         12.1930  161.4460  109.3590 H     7520  MOL7520     0.2052
  35561  O         14.7720  132.0150  173.5670 O.3   7521  MOL7521    -0.4105
  35562  H         15.6220  132.5020  173.5280 H     7521  MOL7521     0.2052
  35563  H         14.0680  132.6430  173.8750 H     7521  MOL7521     0.2052
  35564  O         48.8690  160.4250   81.6950 O.3   7522  MOL7522    -0.4105
  35565  H         49.7760  160.0720   81.5830 H     7522  MOL7522     0.2052
  35566  H         48.3350  160.1710   80.8980 H     7522  MOL7522     0.2052
  35567  O        100.4330  146.0900  185.9480 O.3   7523  MOL7523    -0.4105
  35568  H        100.4780  145.5800  185.1120 H     7523  MOL7523     0.2052
  35569  H        100.2770  147.0430  185.7210 H     7523  MOL7523     0.2052
  35570  O         67.6410   22.9960  264.0110 O.3   7524  MOL7524    -0.4105
  35571  H         68.0940   23.8650  264.0190 H     7524  MOL7524     0.2052
  35572  H         67.2270   22.8540  264.9020 H     7524  MOL7524     0.2052
  35573  O        187.1800   15.4420  186.2980 O.3   7525  MOL7525    -0.4105
  35574  H        187.7190   14.6360  186.1540 H     7525  MOL7525     0.2052
  35575  H        186.4010   15.1980  186.8610 H     7525  MOL7525     0.2052
  35576  O         60.8770  196.5240   56.8540 O.3   7526  MOL7526    -0.4105
  35577  H         60.8490  195.6740   56.3680 H     7526  MOL7526     0.2052
  35578  H         59.9890  196.6710   57.2730 H     7526  MOL7526     0.2052
  35579  O         12.7310   18.8930  139.6570 O.3   7527  MOL7527    -0.4105
  35580  H         11.7550   18.8030  139.6780 H     7527  MOL7527     0.2052
  35581  H         12.9800   19.3730  138.8250 H     7527  MOL7527     0.2052
  35582  O        128.6810   21.1500  188.8320 O.3   7528  MOL7528    -0.4105
  35583  H        127.8240   20.6750  188.8320 H     7528  MOL7528     0.2052
  35584  H        129.4100   20.4760  188.8320 H     7528  MOL7528     0.2052
  35585  O         25.9570   69.3690  152.0080 O.3   7529  MOL7529    -0.4105
  35586  H         25.6970   70.2070  151.5710 H     7529  MOL7529     0.2052
  35587  H         26.8690   69.1270  151.6990 H     7529  MOL7529     0.2052
  35588  O        104.3690  132.3100  243.9540 O.3   7530  MOL7530    -0.4105
  35589  H        103.6050  132.0360  244.5030 H     7530  MOL7530     0.2052
  35590  H        104.6980  131.5160  243.4590 H     7530  MOL7530     0.2052
  35591  O         37.3770  118.0260   68.2060 O.3   7531  MOL7531    -0.4105
  35592  H         36.6010  117.8040   67.6500 H     7531  MOL7531     0.2052
  35593  H         37.1340  117.8670   69.1550 H     7531  MOL7531     0.2052
  35594  O        131.9430   59.6580  174.1130 O.3   7532  MOL7532    -0.4105
  35595  H        132.1590   60.5590  174.4330 H     7532  MOL7532     0.2052
  35596  H        132.6300   59.3930  173.4480 H     7532  MOL7532     0.2052
  35597  O         76.3770  166.5890  295.2080 O.3   7533  MOL7533    -0.4105
  35598  H         77.2850  166.3390  294.9360 H     7533  MOL7533     0.2052
  35599  H         76.4170  166.9390  296.1360 H     7533  MOL7533     0.2052
  35600  O          4.7910   74.0370  261.6450 O.3   7534  MOL7534    -0.4105
  35601  H          5.4780   73.4760  261.2270 H     7534  MOL7534     0.2052
  35602  H          4.6000   73.6710  262.5480 H     7534  MOL7534     0.2052
  35603  O        122.0210  102.5090  173.7670 O.3   7535  MOL7535    -0.4105
  35604  H        122.4230  103.3820  173.5750 H     7535  MOL7535     0.2052
  35605  H        122.7180  101.8130  173.6450 H     7535  MOL7535     0.2052
  35606  O         11.2840  183.6190   46.5650 O.3   7536  MOL7536    -0.4105
  35607  H         12.1580  183.3070   46.8800 H     7536  MOL7536     0.2052
  35608  H         11.0180  183.0640   45.7860 H     7536  MOL7536     0.2052
  35609  O        103.1370   70.8880  196.4440 O.3   7537  MOL7537    -0.4105
  35610  H        103.7560   70.1340  196.5420 H     7537  MOL7537     0.2052
  35611  H        102.2100   70.5410  196.5150 H     7537  MOL7537     0.2052
  35612  O        140.3400   95.5010  179.6360 O.3   7538  MOL7538    -0.4105
  35613  H        139.5120   95.0830  179.3180 H     7538  MOL7538     0.2052
  35614  H        140.4160   95.3360  180.6120 H     7538  MOL7538     0.2052
  35615  O        181.4640   39.6030  296.8700 O.3   7539  MOL7539    -0.4105
  35616  H        180.5390   39.8940  297.0110 H     7539  MOL7539     0.2052
  35617  H        181.9360   39.6380  297.7420 H     7539  MOL7539     0.2052
  35618  O        148.1670   92.9180  275.8790 O.3   7540  MOL7540    -0.4105
  35619  H        148.8970   93.5690  275.8240 H     7540  MOL7540     0.2052
  35620  H        148.5630   92.0150  275.9880 H     7540  MOL7540     0.2052
  35621  O         60.5500  170.0350   79.1430 O.3   7541  MOL7541    -0.4105
  35622  H         61.4760  169.7220   79.2100 H     7541  MOL7541     0.2052
  35623  H         59.9560  169.2400   79.1070 H     7541  MOL7541     0.2052
  35624  O        183.8350   24.2040  218.3450 O.3   7542  MOL7542    -0.4105
  35625  H        183.1470   23.6070  218.7050 H     7542  MOL7542     0.2052
  35626  H        183.3830   24.9310  217.8430 H     7542  MOL7542     0.2052
  35627  O        119.9270   25.2430  134.9280 O.3   7543  MOL7543    -0.4105
  35628  H        119.6890   24.6940  135.7050 H     7543  MOL7543     0.2052
  35629  H        120.2120   24.6370  134.1960 H     7543  MOL7543     0.2052
  35630  O        184.2930  115.4150   14.5060 O.3   7544  MOL7544    -0.4105
  35631  H        183.8040  116.2290   14.2620 H     7544  MOL7544     0.2052
  35632  H        183.9290  114.6620   13.9730 H     7544  MOL7544     0.2052
  35633  O         75.7760   21.6070   14.6300 O.3   7545  MOL7545    -0.4105
  35634  H         75.7940   20.8420   14.0170 H     7545  MOL7545     0.2052
  35635  H         76.0950   22.4070   14.1370 H     7545  MOL7545     0.2052
  35636  O         56.8560   32.7310  204.8330 O.3   7546  MOL7546    -0.4105
  35637  H         56.8010   32.3080  203.9510 H     7546  MOL7546     0.2052
  35638  H         57.1190   32.0390  205.4940 H     7546  MOL7546     0.2052
  35639  O          6.8010  180.3000  103.6650 O.3   7547  MOL7547    -0.4105
  35640  H          6.8350  181.2770  103.7350 H     7547  MOL7547     0.2052
  35641  H          7.7080  179.9440  103.8550 H     7547  MOL7547     0.2052
  35642  O        102.1690  186.2980  240.8890 O.3   7548  MOL7548    -0.4105
  35643  H        103.0480  185.9700  240.6040 H     7548  MOL7548     0.2052
  35644  H        102.2540  187.2620  241.1100 H     7548  MOL7548     0.2052
  35645  O         20.9970  106.4940  226.8160 O.3   7549  MOL7549    -0.4105
  35646  H         21.9690  106.5780  226.9090 H     7549  MOL7549     0.2052
  35647  H         20.7710  105.5290  226.7740 H     7549  MOL7549     0.2052
  35648  O         25.1960  118.6090  138.1100 O.3   7550  MOL7550    -0.4105
  35649  H         24.2330  118.4330  138.1420 H     7550  MOL7550     0.2052
  35650  H         25.3460  119.5620  138.3390 H     7550  MOL7550     0.2052
  35651  O         75.7520  180.7670  202.4080 O.3   7551  MOL7551    -0.4105
  35652  H         75.3830  180.1380  201.7530 H     7551  MOL7551     0.2052
  35653  H         74.9980  181.1830  202.8990 H     7551  MOL7551     0.2052
  35654  O        122.3200  125.5290  244.3890 O.3   7552  MOL7552    -0.4105
  35655  H        123.1160  125.0420  244.0900 H     7552  MOL7552     0.2052
  35656  H        121.6700  125.5530  243.6390 H     7552  MOL7552     0.2052
  35657  O        110.8060   78.3760    7.5470 O.3   7553  MOL7553    -0.4105
  35658  H        111.6880   78.6840    7.8440 H     7553  MOL7553     0.2052
  35659  H        110.8030   78.3550    6.5550 H     7553  MOL7553     0.2052
  35660  O        102.6430  120.3760  265.9790 O.3   7554  MOL7554    -0.4105
  35661  H        101.6770  120.3370  266.1430 H     7554  MOL7554     0.2052
  35662  H        103.0850  119.7070  266.5630 H     7554  MOL7554     0.2052
  35663  O         23.4640   18.1010  269.3860 O.3   7555  MOL7555    -0.4105
  35664  H         23.4060   19.0700  269.2530 H     7555  MOL7555     0.2052
  35665  H         22.7420   17.6720  268.8580 H     7555  MOL7555     0.2052
  35666  O        142.9750   30.7860  158.4850 O.3   7556  MOL7556    -0.4105
  35667  H        143.4570   29.9390  158.5880 H     7556  MOL7556     0.2052
  35668  H        142.3910   30.9090  159.2770 H     7556  MOL7556     0.2052
  35669  O         51.6460   94.5020   77.5400 O.3   7557  MOL7557    -0.4105
  35670  H         51.6320   95.0360   76.7190 H     7557  MOL7557     0.2052
  35671  H         52.5920   94.3700   77.8090 H     7557  MOL7557     0.2052
  35672  O         29.8240   34.3040  125.8700 O.3   7558  MOL7558    -0.4105
  35673  H         29.6090   35.0320  126.4910 H     7558  MOL7558     0.2052
  35674  H         29.3150   34.4520  125.0310 H     7558  MOL7558     0.2052
  35675  O         23.4170   44.6030  280.4060 O.3   7559  MOL7559    -0.4105
  35676  H         22.9200   43.8810  279.9670 H     7559  MOL7559     0.2052
  35677  H         23.0750   44.6970  281.3320 H     7559  MOL7559     0.2052
  35678  O        120.4660  130.7450  279.1780 O.3   7560  MOL7560    -0.4105
  35679  H        119.5950  131.1880  279.1020 H     7560  MOL7560     0.2052
  35680  H        120.3910  129.8410  278.7760 H     7560  MOL7560     0.2052
  35681  O         65.6460  159.9430  261.6670 O.3   7561  MOL7561    -0.4105
  35682  H         65.5070  159.0270  261.3470 H     7561  MOL7561     0.2052
  35683  H         64.8900  160.1810  262.2630 H     7561  MOL7561     0.2052
  35684  O        153.4480  123.7410  219.9160 O.3   7562  MOL7562    -0.4105
  35685  H        152.9960  123.2300  220.6200 H     7562  MOL7562     0.2052
  35686  H        152.8780  123.7230  219.1040 H     7562  MOL7562     0.2052
  35687  O        194.6870  176.8320  226.3210 O.3   7563  MOL7563    -0.4105
  35688  H        194.0310  177.5190  226.5630 H     7563  MOL7563     0.2052
  35689  H        194.5830  176.0700  226.9470 H     7563  MOL7563     0.2052
  35690  O         60.7540   66.3460   78.1870 O.3   7564  MOL7564    -0.4105
  35691  H         60.3930   66.8620   78.9380 H     7564  MOL7564     0.2052
  35692  H         61.6550   66.0160   78.4420 H     7564  MOL7564     0.2052
  35693  O        184.2410   29.1180  226.5040 O.3   7565  MOL7565    -0.4105
  35694  H        183.2880   28.8930  226.5490 H     7565  MOL7565     0.2052
  35695  H        184.6380   28.9690  227.4010 H     7565  MOL7565     0.2052
  35696  O         89.5350  192.2850  115.5390 O.3   7566  MOL7566    -0.4105
  35697  H         89.2020  193.1910  115.7100 H     7566  MOL7566     0.2052
  35698  H         90.5270  192.3150  115.5340 H     7566  MOL7566     0.2052
  35699  O        180.2130  197.1090  255.0000 O.3   7567  MOL7567    -0.4105
  35700  H        180.2800  197.6050  255.8420 H     7567  MOL7567     0.2052
  35701  H        179.5220  196.4040  255.1090 H     7567  MOL7567     0.2052
  35702  O         43.4560   67.8080  242.5150 O.3   7568  MOL7568    -0.4105
  35703  H         42.9370   68.0780  243.3010 H     7568  MOL7568     0.2052
  35704  H         42.8350   67.4020  241.8570 H     7568  MOL7568     0.2052
  35705  O         58.3850    2.5680   55.6330 O.3   7569  MOL7569    -0.4105
  35706  H         58.3320    2.1720   56.5280 H     7569  MOL7569     0.2052
  35707  H         57.9950    1.9260   54.9850 H     7569  MOL7569     0.2052
  35708  O        100.8390  160.1640  174.5070 O.3   7570  MOL7570    -0.4105
  35709  H         99.8620  160.1820  174.4380 H     7570  MOL7570     0.2052
  35710  H        101.2180  160.5050  173.6550 H     7570  MOL7570     0.2052
  35711  O         42.1850  143.9490  257.4460 O.3   7571  MOL7571    -0.4105
  35712  H         42.7440  144.7530  257.4730 H     7571  MOL7571     0.2052
  35713  H         42.7810  143.1560  257.4410 H     7571  MOL7571     0.2052
  35714  O         47.6230   73.3060  257.0740 O.3   7572  MOL7572    -0.4105
  35715  H         47.0440   74.0970  257.0960 H     7572  MOL7572     0.2052
  35716  H         47.7540   72.9910  258.0060 H     7572  MOL7572     0.2052
  35717  O         54.2410   76.8510  223.6870 O.3   7573  MOL7573    -0.4105
  35718  H         54.9260   77.5470  223.6050 H     7573  MOL7573     0.2052
  35719  H         53.4570   77.2400  224.1540 H     7573  MOL7573     0.2052
  35720  O         92.8020   27.6650  199.5290 O.3   7574  MOL7574    -0.4105
  35721  H         93.2090   28.1330  198.7700 H     7574  MOL7574     0.2052
  35722  H         93.1690   26.7440  199.5600 H     7574  MOL7574     0.2052
  35723  O         78.3990   22.3780   53.6110 O.3   7575  MOL7575    -0.4105
  35724  H         78.0760   23.2850   53.4270 H     7575  MOL7575     0.2052
  35725  H         77.6850   21.7370   53.3580 H     7575  MOL7575     0.2052
  35726  O        164.2560   86.7890  124.4280 O.3   7576  MOL7576    -0.4105
  35727  H        165.0170   86.1910  124.5810 H     7576  MOL7576     0.2052
  35728  H        164.5830   87.7250  124.4670 H     7576  MOL7576     0.2052
  35729  O        175.8780   79.7230  169.8860 O.3   7577  MOL7577    -0.4105
  35730  H        175.0810   80.2900  169.9510 H     7577  MOL7577     0.2052
  35731  H        175.5870   78.8010  169.6650 H     7577  MOL7577     0.2052
  35732  O        112.8040  176.7590  221.3550 O.3   7578  MOL7578    -0.4105
  35733  H        112.2390  175.9600  221.3070 H     7578  MOL7578     0.2052
  35734  H        112.2470  177.5140  221.6800 H     7578  MOL7578     0.2052
  35735  O        105.1590   79.8800  174.3880 O.3   7579  MOL7579    -0.4105
  35736  H        104.7560   80.7490  174.5930 H     7579  MOL7579     0.2052
  35737  H        104.4330   79.2540  174.1300 H     7579  MOL7579     0.2052
  35738  O        190.4920  125.2820   42.4000 O.3   7580  MOL7580    -0.4105
  35739  H        190.1980  126.0290   42.9620 H     7580  MOL7580     0.2052
  35740  H        189.7330  124.6510   42.2990 H     7580  MOL7580     0.2052
  35741  O         37.0190  103.8670   81.2810 O.3   7581  MOL7581    -0.4105
  35742  H         36.3000  103.5900   80.6760 H     7581  MOL7581     0.2052
  35743  H         37.5750  103.0710   81.4880 H     7581  MOL7581     0.2052
  35744  O        126.6540  192.3660  291.9750 O.3   7582  MOL7582    -0.4105
  35745  H        127.3910  192.9230  291.6480 H     7582  MOL7582     0.2052
  35746  H        126.7780  192.2260  292.9490 H     7582  MOL7582     0.2052
  35747  O        187.3910  132.4690  279.0720 O.3   7583  MOL7583    -0.4105
  35748  H        187.2850  131.5900  279.4930 H     7583  MOL7583     0.2052
  35749  H        188.3050  132.5210  278.6890 H     7583  MOL7583     0.2052
  35750  O        148.8190   17.1040  199.5520 O.3   7584  MOL7584    -0.4105
  35751  H        149.1420   18.0120  199.3730 H     7584  MOL7584     0.2052
  35752  H        149.4950   16.4620  199.2130 H     7584  MOL7584     0.2052
  35753  O        100.2290   11.7350  285.4980 O.3   7585  MOL7585    -0.4105
  35754  H        101.1900   11.5430  285.5090 H     7585  MOL7585     0.2052
  35755  H        100.0780   12.5920  285.9750 H     7585  MOL7585     0.2052
  35756  O        159.4110  105.1880  188.7070 O.3   7586  MOL7586    -0.4105
  35757  H        159.6100  105.1530  187.7480 H     7586  MOL7586     0.2052
  35758  H        160.1500  105.6710  189.1600 H     7586  MOL7586     0.2052
  35759  O         55.5040  144.4120  189.3510 O.3   7587  MOL7587    -0.4105
  35760  H         55.1170  143.5570  189.0660 H     7587  MOL7587     0.2052
  35761  H         54.7610  145.0430  189.5340 H     7587  MOL7587     0.2052
  35762  O         79.8760   94.8380    8.5890 O.3   7588  MOL7588    -0.4105
  35763  H         79.1910   94.7120    7.9000 H     7588  MOL7588     0.2052
  35764  H         79.7520   95.7370    8.9900 H     7588  MOL7588     0.2052
  35765  O        150.3060  163.7240  111.2100 O.3   7589  MOL7589    -0.4105
  35766  H        150.0370  162.9500  111.7480 H     7589  MOL7589     0.2052
  35767  H        150.8190  164.3430  111.7920 H     7589  MOL7589     0.2052
  35768  O        138.1660  183.6990  196.4460 O.3   7590  MOL7590    -0.4105
  35769  H        138.9820  184.1790  196.7000 H     7590  MOL7590     0.2052
  35770  H        138.4290  182.8200  196.0670 H     7590  MOL7590     0.2052
  35771  O         82.6890   53.0980  259.2550 O.3   7591  MOL7591    -0.4105
  35772  H         83.2520   52.4350  258.8040 H     7591  MOL7591     0.2052
  35773  H         82.1750   52.6360  259.9670 H     7591  MOL7591     0.2052
  35774  O        123.4350   46.2790  293.5980 O.3   7592  MOL7592    -0.4105
  35775  H        123.4830   47.2310  293.3680 H     7592  MOL7592     0.2052
  35776  H        123.4710   45.7540  292.7570 H     7592  MOL7592     0.2052
  35777  O        196.1060  159.5720  149.7630 O.3   7593  MOL7593    -0.4105
  35778  H        196.9200  159.0270  149.7960 H     7593  MOL7593     0.2052
  35779  H        195.3250  158.9610  149.7150 H     7593  MOL7593     0.2052
  35780  O        132.5030  105.7430  282.6070 O.3   7594  MOL7594    -0.4105
  35781  H        132.2580  105.4510  281.7040 H     7594  MOL7594     0.2052
  35782  H        131.9490  106.5340  282.8390 H     7594  MOL7594     0.2052
  35783  O         57.2880  180.7120   23.2120 O.3   7595  MOL7595    -0.4105
  35784  H         57.0550  181.3850   22.5390 H     7595  MOL7595     0.2052
  35785  H         56.5310  180.6340   23.8490 H     7595  MOL7595     0.2052
  35786  O         34.4690  142.5630    2.3880 O.3   7596  MOL7596    -0.4105
  35787  H         34.7730  141.6320    2.3720 H     7596  MOL7596     0.2052
  35788  H         35.2670  143.1500    2.4440 H     7596  MOL7596     0.2052
  35789  O        102.8160  145.6020  254.6030 O.3   7597  MOL7597    -0.4105
  35790  H        103.4090  145.4730  255.3720 H     7597  MOL7597     0.2052
  35791  H        102.0280  145.0090  254.7140 H     7597  MOL7597     0.2052
  35792  O        161.4470   55.6260  227.3090 O.3   7598  MOL7598    -0.4105
  35793  H        160.8120   55.7400  228.0470 H     7598  MOL7598     0.2052
  35794  H        162.2530   56.1690  227.5070 H     7598  MOL7598     0.2052
  35795  O         76.6930  140.3670  199.1610 O.3   7599  MOL7599    -0.4105
  35796  H         75.8380  140.6670  198.7880 H     7599  MOL7599     0.2052
  35797  H         77.1850  141.1650  199.4880 H     7599  MOL7599     0.2052
  35798  O        128.8150  169.5310  246.4950 O.3   7600  MOL7600    -0.4105
  35799  H        127.8600  169.3220  246.5540 H     7600  MOL7600     0.2052
  35800  H        129.3200  168.6770  246.4770 H     7600  MOL7600     0.2052
  35801  O        136.3050   30.2910  111.5630 O.3   7601  MOL7601    -0.4105
  35802  H        136.6920   30.0730  110.6890 H     7601  MOL7601     0.2052
  35803  H        136.9530   30.8550  112.0580 H     7601  MOL7601     0.2052
  35804  O         13.5880   84.5950  248.8540 O.3   7602  MOL7602    -0.4105
  35805  H         12.6370   84.5940  248.6190 H     7602  MOL7602     0.2052
  35806  H         13.9820   85.4530  248.5480 H     7602  MOL7602     0.2052
  35807  O        178.3780  138.6250  183.0170 O.3   7603  MOL7603    -0.4105
  35808  H        178.8720  138.4710  182.1850 H     7603  MOL7603     0.2052
  35809  H        177.9690  139.5280  182.9720 H     7603  MOL7603     0.2052
  35810  O        145.8970  179.4630   46.8570 O.3   7604  MOL7604    -0.4105
  35811  H        146.7010  180.0230   46.8660 H     7604  MOL7604     0.2052
  35812  H        146.1800  178.5120   46.8830 H     7604  MOL7604     0.2052
  35813  O         98.9470   32.0190  239.2370 O.3   7605  MOL7605    -0.4105
  35814  H         99.7280   32.2330  239.7880 H     7605  MOL7605     0.2052
  35815  H         98.6380   31.1070  239.4750 H     7605  MOL7605     0.2052
  35816  O        191.7170  162.7930  123.6780 O.3   7606  MOL7606    -0.4105
  35817  H        192.4970  163.1770  124.1310 H     7606  MOL7606     0.2052
  35818  H        191.9970  161.9460  123.2430 H     7606  MOL7606     0.2052
  35819  O        134.4460  179.9620  132.7620 O.3   7607  MOL7607    -0.4105
  35820  H        135.2710  179.6350  132.3460 H     7607  MOL7607     0.2052
  35821  H        134.0950  180.7090  132.2110 H     7607  MOL7607     0.2052
  35822  O         30.3800  179.7850  260.4670 O.3   7608  MOL7608    -0.4105
  35823  H         30.2810  179.1200  261.1800 H     7608  MOL7608     0.2052
  35824  H         29.5750  180.3650  260.4690 H     7608  MOL7608     0.2052
  35825  O        113.2730   38.3140   67.4400 O.3   7609  MOL7609    -0.4105
  35826  H        113.4130   37.9190   68.3260 H     7609  MOL7609     0.2052
  35827  H        113.3260   37.5880   66.7660 H     7609  MOL7609     0.2052
  35828  O        150.1920  156.3510  187.3160 O.3   7610  MOL7610    -0.4105
  35829  H        151.1020  156.0120  187.1850 H     7610  MOL7610     0.2052
  35830  H        149.5760  155.5740  187.3680 H     7610  MOL7610     0.2052
  35831  O         93.2680   42.3310  242.3030 O.3   7611  MOL7611    -0.4105
  35832  H         92.9690   41.3970  242.2880 H     7611  MOL7611     0.2052
  35833  H         94.1050   42.3800  242.8340 H     7611  MOL7611     0.2052
  35834  O         69.9780   20.0130  267.9710 O.3   7612  MOL7612    -0.4105
  35835  H         69.8150   20.2130  268.9160 H     7612  MOL7612     0.2052
  35836  H         69.9210   19.0300  267.8470 H     7612  MOL7612     0.2052
  35837  O         20.1240   85.2980  102.2730 O.3   7613  MOL7613    -0.4105
  35838  H         19.8240   85.8880  101.5510 H     7613  MOL7613     0.2052
  35839  H         21.1030   85.4110  102.3800 H     7613  MOL7613     0.2052
  35840  O         36.0830   86.8550   37.6390 O.3   7614  MOL7614    -0.4105
  35841  H         35.6530   87.5720   37.1290 H     7614  MOL7614     0.2052
  35842  H         36.7440   86.4080   37.0500 H     7614  MOL7614     0.2052
  35843  O        176.4220   66.2880  243.4080 O.3   7615  MOL7615    -0.4105
  35844  H        175.4630   66.0890  243.4260 H     7615  MOL7615     0.2052
  35845  H        176.5360   67.2730  243.4540 H     7615  MOL7615     0.2052
  35846  O         82.6400  112.8970  247.9090 O.3   7616  MOL7616    -0.4105
  35847  H         82.4070  112.0420  248.3270 H     7616  MOL7616     0.2052
  35848  H         83.3200  113.3450  248.4770 H     7616  MOL7616     0.2052
  35849  O         80.0560   66.6500  261.3800 O.3   7617  MOL7617    -0.4105
  35850  H         81.0240   66.4960  261.3970 H     7617  MOL7617     0.2052
  35851  H         79.6400   66.0870  262.0830 H     7617  MOL7617     0.2052
  35852  O        158.5510  187.3380  113.0020 O.3   7618  MOL7618    -0.4105
  35853  H        158.5350  188.2550  113.3500 H     7618  MOL7618     0.2052
  35854  H        157.6480  187.1230  112.6520 H     7618  MOL7618     0.2052
  35855  O         36.7170   25.4850  283.2060 O.3   7619  MOL7619    -0.4105
  35856  H         36.0410   24.8090  282.9890 H     7619  MOL7619     0.2052
  35857  H         36.3550   26.0660  283.9240 H     7619  MOL7619     0.2052
  35858  O        170.4690  175.9080  146.5120 O.3   7620  MOL7620    -0.4105
  35859  H        170.9600  176.3330  147.2450 H     7620  MOL7620     0.2052
  35860  H        170.9620  175.0910  146.2400 H     7620  MOL7620     0.2052
  35861  O        109.4120  177.2460  212.9300 O.3   7621  MOL7621    -0.4105
  35862  H        109.7110  178.1790  212.9490 H     7621  MOL7621     0.2052
  35863  H        110.2140  176.6620  212.9380 H     7621  MOL7621     0.2052
  35864  O         73.5890   18.0730  214.7100 O.3   7622  MOL7622    -0.4105
  35865  H         73.4380   17.1130  214.8370 H     7622  MOL7622     0.2052
  35866  H         74.3440   18.3490  215.2920 H     7622  MOL7622     0.2052
  35867  O         82.5290  119.9270  181.3580 O.3   7623  MOL7623    -0.4105
  35868  H         82.3060  119.0720  180.9340 H     7623  MOL7623     0.2052
  35869  H         83.3140  120.3110  180.8880 H     7623  MOL7623     0.2052
  35870  O        163.6320  163.4890  278.7890 O.3   7624  MOL7624    -0.4105
  35871  H        162.9960  162.9040  278.3260 H     7624  MOL7624     0.2052
  35872  H        163.1950  163.8310  279.6120 H     7624  MOL7624     0.2052
  35873  O         46.2280  186.6000   86.6680 O.3   7625  MOL7625    -0.4105
  35874  H         46.1030  185.7170   87.0730 H     7625  MOL7625     0.2052
  35875  H         45.4220  186.8130   86.1310 H     7625  MOL7625     0.2052
  35876  O        194.9100  119.3210  213.2610 O.3   7626  MOL7626    -0.4105
  35877  H        195.5480  118.6480  213.5770 H     7626  MOL7626     0.2052
  35878  H        195.4190  120.1300  212.9940 H     7626  MOL7626     0.2052
  35879  O        196.9180  147.5610  210.5290 O.3   7627  MOL7627    -0.4105
  35880  H        197.0300  146.5990  210.6790 H     7627  MOL7627     0.2052
  35881  H        197.3150  147.7860  209.6490 H     7627  MOL7627     0.2052
  35882  O        189.4470   73.1870  279.0270 O.3   7628  MOL7628    -0.4105
  35883  H        190.3890   73.3790  278.8340 H     7628  MOL7628     0.2052
  35884  H        188.9360   73.2570  278.1790 H     7628  MOL7628     0.2052
  35885  O         56.3470  108.7810   31.6370 O.3   7629  MOL7629    -0.4105
  35886  H         57.2700  109.0820   31.7690 H     7629  MOL7629     0.2052
  35887  H         56.3700  107.8400   31.3220 H     7629  MOL7629     0.2052
  35888  O         73.1330   15.4650    7.7130 O.3   7630  MOL7630    -0.4105
  35889  H         72.2210   15.6580    7.4090 H     7630  MOL7630     0.2052
  35890  H         73.5010   14.7370    7.1480 H     7630  MOL7630     0.2052
  35891  O         57.5090  120.9030  228.1670 O.3   7631  MOL7631    -0.4105
  35892  H         57.1110  120.7620  229.0520 H     7631  MOL7631     0.2052
  35893  H         56.8840  121.4560  227.6310 H     7631  MOL7631     0.2052
  35894  O        127.5150  156.8420  205.9350 O.3   7632  MOL7632    -0.4105
  35895  H        128.2900  156.7000  206.5170 H     7632  MOL7632     0.2052
  35896  H        126.7160  156.4630  206.3840 H     7632  MOL7632     0.2052
  35897  O         77.7100  137.8420  164.9730 O.3   7633  MOL7633    -0.4105
  35898  H         77.3630  137.4200  164.1600 H     7633  MOL7633     0.2052
  35899  H         78.3970  137.2440  165.3650 H     7633  MOL7633     0.2052
  35900  O        150.8560  114.1360   47.6330 O.3   7634  MOL7634    -0.4105
  35901  H        151.2550  115.0280   47.7100 H     7634  MOL7634     0.2052
  35902  H        151.5660  113.4630   47.7960 H     7634  MOL7634     0.2052
  35903  O         51.9930   24.8860  195.7830 O.3   7635  MOL7635    -0.4105
  35904  H         52.8840   25.1510  196.0940 H     7635  MOL7635     0.2052
  35905  H         51.8730   23.9190  195.9710 H     7635  MOL7635     0.2052
  35906  O         44.3620  154.5800   86.5190 O.3   7636  MOL7636    -0.4105
  35907  H         44.6710  153.6500   86.5070 H     7636  MOL7636     0.2052
  35908  H         43.4570  154.6010   86.9260 H     7636  MOL7636     0.2052
  35909  O        141.5800  154.7730  214.1650 O.3   7637  MOL7637    -0.4105
  35910  H        141.2830  155.6710  214.4220 H     7637  MOL7637     0.2052
  35911  H        142.5600  154.7160  214.3130 H     7637  MOL7637     0.2052
  35912  O        168.3000   60.0970  272.8730 O.3   7638  MOL7638    -0.4105
  35913  H        168.2710   59.1470  273.1130 H     7638  MOL7638     0.2052
  35914  H        167.7160   60.2360  272.0830 H     7638  MOL7638     0.2052
  35915  O        160.9160  162.9550   22.6190 O.3   7639  MOL7639    -0.4105
  35916  H        160.5040  162.8300   21.7390 H     7639  MOL7639     0.2052
  35917  H        161.9010  162.9870   22.4990 H     7639  MOL7639     0.2052
  35918  O         67.4660   39.4330  173.0050 O.3   7640  MOL7640    -0.4105
  35919  H         66.9360   39.5690  172.1920 H     7640  MOL7640     0.2052
  35920  H         66.9310   39.7460  173.7810 H     7640  MOL7640     0.2052
  35921  O         87.3320  196.1890  166.7070 O.3   7641  MOL7641    -0.4105
  35922  H         86.7430  195.4060  166.6980 H     7641  MOL7641     0.2052
  35923  H         86.7650  197.0030  166.7060 H     7641  MOL7641     0.2052
  35924  O        184.6080  160.5700  244.4870 O.3   7642  MOL7642    -0.4105
  35925  H        183.9970  159.8150  244.6190 H     7642  MOL7642     0.2052
  35926  H        184.8390  160.9420  245.3770 H     7642  MOL7642     0.2052
  35927  O         27.1180  186.4030  251.2320 O.3   7643  MOL7643    -0.4105
  35928  H         26.3770  185.7960  251.0210 H     7643  MOL7643     0.2052
  35929  H         27.9180  186.1010  250.7290 H     7643  MOL7643     0.2052
  35930  O         39.3880   12.5680   15.6180 O.3   7644  MOL7644    -0.4105
  35931  H         38.7240   12.4300   16.3260 H     7644  MOL7644     0.2052
  35932  H         40.1400   13.0920   15.9970 H     7644  MOL7644     0.2052
  35933  O         52.5770  111.1510  165.6510 O.3   7645  MOL7645    -0.4105
  35934  H         52.0030  111.8970  165.3800 H     7645  MOL7645     0.2052
  35935  H         53.5110  111.4830  165.7060 H     7645  MOL7645     0.2052
  35936  O         75.4010  177.7010  220.3760 O.3   7646  MOL7646    -0.4105
  35937  H         74.4470  177.8890  220.4980 H     7646  MOL7646     0.2052
  35938  H         75.5120  176.7210  220.2650 H     7646  MOL7646     0.2052
  35939  O         93.0690  143.5740    8.4250 O.3   7647  MOL7647    -0.4105
  35940  H         92.3030  143.0270    8.1540 H     7647  MOL7647     0.2052
  35941  H         93.6120  143.0500    9.0700 H     7647  MOL7647     0.2052
  35942  O        114.8060  163.7860   37.8410 O.3   7648  MOL7648    -0.4105
  35943  H        114.6940  162.8180   37.9400 H     7648  MOL7648     0.2052
  35944  H        113.9350  164.1740   37.5670 H     7648  MOL7648     0.2052
  35945  O         42.2090   57.3150   61.5490 O.3   7649  MOL7649    -0.4105
  35946  H         41.9850   58.2690   61.5650 H     7649  MOL7649     0.2052
  35947  H         43.1980   57.2280   61.5530 H     7649  MOL7649     0.2052
  35948  O         21.1160  177.5200  223.8770 O.3   7650  MOL7650    -0.4105
  35949  H         22.0620  177.5910  223.6310 H     7650  MOL7650     0.2052
  35950  H         20.6480  177.0070  223.1680 H     7650  MOL7650     0.2052
  35951  O        177.8590   40.5430  199.4140 O.3   7651  MOL7651    -0.4105
  35952  H        178.2290   41.3520  199.0040 H     7651  MOL7651     0.2052
  35953  H        178.1150   40.5350  200.3730 H     7651  MOL7651     0.2052
  35954  O        125.8770  126.6420   48.2410 O.3   7652  MOL7652    -0.4105
  35955  H        125.1670  127.2540   48.5280 H     7652  MOL7652     0.2052
  35956  H        125.4520  125.8420   47.8360 H     7652  MOL7652     0.2052
  35957  O         81.3650   62.8920  250.5330 O.3   7653  MOL7653    -0.4105
  35958  H         80.4380   63.1760  250.6810 H     7653  MOL7653     0.2052
  35959  H         81.8720   63.6630  250.1690 H     7653  MOL7653     0.2052
  35960  O         84.4450  168.8280  108.3730 O.3   7654  MOL7654    -0.4105
  35961  H         83.5140  168.7400  108.6660 H     7654  MOL7654     0.2052
  35962  H         84.7680  169.7300  108.6280 H     7654  MOL7654     0.2052
  35963  O        198.4000   25.5460  229.0580 O.3   7655  MOL7655    -0.4105
  35964  H        198.9180   26.2150  228.5630 H     7655  MOL7655     0.2052
  35965  H        198.9660   25.2010  229.7970 H     7655  MOL7655     0.2052
  35966  O        132.9760    1.3310   48.5090 O.3   7656  MOL7656    -0.4105
  35967  H        132.8600    0.3660   48.6380 H     7656  MOL7656     0.2052
  35968  H        133.6570    1.6510   49.1560 H     7656  MOL7656     0.2052
  35969  O         51.4890  138.8170   53.8810 O.3   7657  MOL7657    -0.4105
  35970  H         52.3400  138.3350   53.8350 H     7657  MOL7657     0.2052
  35971  H         50.8010  138.2790   53.4110 H     7657  MOL7657     0.2052
  35972  O         49.9120  181.7780  126.1040 O.3   7658  MOL7658    -0.4105
  35973  H         49.8750  182.7540  126.0210 H     7658  MOL7658     0.2052
  35974  H         50.8640  181.5000  126.0770 H     7658  MOL7658     0.2052
  35975  O        194.5190  136.0130   85.2340 O.3   7659  MOL7659    -0.4105
  35976  H        194.7620  136.9400   85.0280 H     7659  MOL7659     0.2052
  35977  H        195.3480  135.4690   85.2420 H     7659  MOL7659     0.2052
  35978  O         90.3970  131.8630  259.7150 O.3   7660  MOL7660    -0.4105
  35979  H         90.6120  131.1010  259.1370 H     7660  MOL7660     0.2052
  35980  H         89.4260  131.8330  259.9190 H     7660  MOL7660     0.2052
  35981  O        160.3910   53.6970   15.3460 O.3   7661  MOL7661    -0.4105
  35982  H        159.9140   53.8050   16.1950 H     7661  MOL7661     0.2052
  35983  H        160.6040   54.6000   14.9920 H     7661  MOL7661     0.2052
  35984  O        194.1860    1.6790   17.2680 O.3   7662  MOL7662    -0.4105
  35985  H        193.8260    2.5590   17.5060 H     7662  MOL7662     0.2052
  35986  H        193.5330    0.9890   17.5550 H     7662  MOL7662     0.2052
  35987  O        106.7570   21.4990  218.4380 O.3   7663  MOL7663    -0.4105
  35988  H        107.0920   21.4720  217.5180 H     7663  MOL7663     0.2052
  35989  H        106.4340   20.5910  218.6770 H     7663  MOL7663     0.2052
  35990  O        163.1630  102.9540   71.9900 O.3   7664  MOL7664    -0.4105
  35991  H        162.3380  102.7110   72.4580 H     7664  MOL7664     0.2052
  35992  H        163.7240  102.1400   71.9060 H     7664  MOL7664     0.2052
  35993  O         32.9700  194.8880  226.0930 O.3   7665  MOL7665    -0.4105
  35994  H         32.5880  193.9860  226.0890 H     7665  MOL7665     0.2052
  35995  H         32.2230  195.5420  226.0920 H     7665  MOL7665     0.2052
  35996  O        112.4480  136.5070  279.1870 O.3   7666  MOL7666    -0.4105
  35997  H        111.4810  136.3520  279.1920 H     7666  MOL7666     0.2052
  35998  H        112.9040  135.6250  279.1780 H     7666  MOL7666     0.2052
  35999  O        160.4740   49.1280  278.0070 O.3   7667  MOL7667    -0.4105
  36000  H        161.0680   48.3640  278.1600 H     7667  MOL7667     0.2052
  36001  H        161.0300   49.9030  277.7340 H     7667  MOL7667     0.2052
  36002  O         42.4330    8.9010  221.7120 O.3   7668  MOL7668    -0.4105
  36003  H         43.0580    8.9080  220.9570 H     7668  MOL7668     0.2052
  36004  H         41.9450    8.0370  221.7030 H     7668  MOL7668     0.2052
  36005  O        193.0610   20.6280  246.2860 O.3   7669  MOL7669    -0.4105
  36006  H        193.4870   21.5080  246.3590 H     7669  MOL7669     0.2052
  36007  H        193.7550   19.9340  246.4290 H     7669  MOL7669     0.2052
  36008  O        169.8040  102.4180   95.3910 O.3   7670  MOL7670    -0.4105
  36009  H        169.8810  101.4890   95.0870 H     7670  MOL7670     0.2052
  36010  H        169.1600  102.4450   96.1460 H     7670  MOL7670     0.2052
  36011  O         52.7680  176.4270   20.2750 O.3   7671  MOL7671    -0.4105
  36012  H         53.0510  175.7010   20.8710 H     7671  MOL7671     0.2052
  36013  H         52.8070  176.0940   19.3410 H     7671  MOL7671     0.2052
  36014  O         52.0750  148.6720  163.4460 O.3   7672  MOL7672    -0.4105
  36015  H         51.9160  149.5800  163.7780 H     7672  MOL7672     0.2052
  36016  H         51.1980  148.2650  163.2220 H     7672  MOL7672     0.2052
  36017  O         74.6460  124.5260  254.8790 O.3   7673  MOL7673    -0.4105
  36018  H         73.9720  123.8260  254.7520 H     7673  MOL7673     0.2052
  36019  H         74.1820  125.4030  254.8970 H     7673  MOL7673     0.2052
  36020  O        190.4460  116.2360    5.3220 O.3   7674  MOL7674    -0.4105
  36021  H        191.2660  116.7630    5.2210 H     7674  MOL7674     0.2052
  36022  H        189.6810  116.8640    5.3980 H     7674  MOL7674     0.2052
  36023  O        152.6590  106.7120  296.4740 O.3   7675  MOL7675    -0.4105
  36024  H        151.9670  107.3570  296.2180 H     7675  MOL7675     0.2052
  36025  H        153.5400  107.1660  296.4240 H     7675  MOL7675     0.2052
  36026  O         42.7320    4.2970  219.0370 O.3   7676  MOL7676    -0.4105
  36027  H         42.9120    5.2220  219.3070 H     7676  MOL7676     0.2052
  36028  H         43.5960    3.8660  218.8090 H     7676  MOL7676     0.2052
  36029  O         41.3390   25.4030  274.1570 O.3   7677  MOL7677    -0.4105
  36030  H         42.0440   24.7690  273.9100 H     7677  MOL7677     0.2052
  36031  H         40.7800   25.5730  273.3550 H     7677  MOL7677     0.2052
  36032  O        189.2880  158.8590  290.1000 O.3   7678  MOL7678    -0.4105
  36033  H        190.1200  158.5040  289.7230 H     7678  MOL7678     0.2052
  36034  H        189.4980  159.2830  290.9720 H     7678  MOL7678     0.2052
  36035  O         56.8190   88.3980  260.0400 O.3   7679  MOL7679    -0.4105
  36036  H         56.6690   87.5690  260.5410 H     7679  MOL7679     0.2052
  36037  H         57.7930   88.5870  260.0360 H     7679  MOL7679     0.2052
  36038  O         39.7340  130.6890  292.2390 O.3   7680  MOL7680    -0.4105
  36039  H         39.1090  130.9210  291.5220 H     7680  MOL7680     0.2052
  36040  H         40.6150  131.0940  292.0260 H     7680  MOL7680     0.2052
  36041  O         23.1960   75.2410   64.5370 O.3   7681  MOL7681    -0.4105
  36042  H         22.2350   75.1900   64.7220 H     7681  MOL7681     0.2052
  36043  H         23.4020   76.1570   64.2160 H     7681  MOL7681     0.2052
  36044  O        194.0770   57.7830  225.6910 O.3   7682  MOL7682    -0.4105
  36045  H        195.0360   57.6210  225.5780 H     7682  MOL7682     0.2052
  36046  H        193.6300   56.9110  225.8460 H     7682  MOL7682     0.2052
  36047  O         78.5010  148.2190  230.2840 O.3   7683  MOL7683    -0.4105
  36048  H         77.7840  148.6930  230.7540 H     7683  MOL7683     0.2052
  36049  H         79.2320  148.8650  230.1010 H     7683  MOL7683     0.2052
  36050  O        146.1420   94.6380   46.2260 O.3   7684  MOL7684    -0.4105
  36051  H        146.9400   95.1910   46.0920 H     7684  MOL7684     0.2052
  36052  H        145.6890   94.9420   47.0550 H     7684  MOL7684     0.2052
  36053  O         61.3480   10.2080   19.1370 O.3   7685  MOL7685    -0.4105
  36054  H         61.2230   10.5550   18.2290 H     7685  MOL7685     0.2052
  36055  H         61.6760   10.9490   19.7090 H     7685  MOL7685     0.2052
  36056  O         60.4010  124.5560  182.3440 O.3   7686  MOL7686    -0.4105
  36057  H         60.3300  125.4020  181.8540 H     7686  MOL7686     0.2052
  36058  H         59.9870  123.8430  181.7920 H     7686  MOL7686     0.2052
  36059  O         42.7270   89.2890  296.3940 O.3   7687  MOL7687    -0.4105
  36060  H         42.8520   88.3310  296.5590 H     7687  MOL7687     0.2052
  36061  H         43.3510   89.7900  296.9820 H     7687  MOL7687     0.2052
  36062  O         77.1350   81.6560   68.9430 O.3   7688  MOL7688    -0.4105
  36063  H         77.9280   81.6920   68.3690 H     7688  MOL7688     0.2052
  36064  H         77.3010   82.2260   69.7380 H     7688  MOL7688     0.2052
  36065  O        181.0210  184.0020  206.8640 O.3   7689  MOL7689    -0.4105
  36066  H        180.1330  184.3040  206.5800 H     7689  MOL7689     0.2052
  36067  H        181.7000  184.4900  206.3300 H     7689  MOL7689     0.2052
  36068  O         60.9450   88.2180   36.8720 O.3   7690  MOL7690    -0.4105
  36069  H         61.3790   87.7700   37.6280 H     7690  MOL7690     0.2052
  36070  H         60.2520   87.6100   36.5070 H     7690  MOL7690     0.2052
  36071  O         86.3250    9.9230  109.4720 O.3   7691  MOL7691    -0.4105
  36072  H         86.6180   10.8370  109.6700 H     7691  MOL7691     0.2052
  36073  H         86.9140    9.5550  108.7630 H     7691  MOL7691     0.2052
  36074  O        105.5670   51.4720  231.5770 O.3   7692  MOL7692    -0.4105
  36075  H        106.1130   52.2560  231.7920 H     7692  MOL7692     0.2052
  36076  H        106.1080   50.6590  231.7520 H     7692  MOL7692     0.2052
  36077  O        179.8310   48.4550   40.1870 O.3   7693  MOL7693    -0.4105
  36078  H        179.5170   49.3520   39.9460 H     7693  MOL7693     0.2052
  36079  H        180.1270   48.4740   41.1340 H     7693  MOL7693     0.2052
  36080  O         26.7470  107.9480  292.4320 O.3   7694  MOL7694    -0.4105
  36081  H         26.8660  107.0440  292.0720 H     7694  MOL7694     0.2052
  36082  H         26.6760  107.8810  293.4200 H     7694  MOL7694     0.2052
  36083  O         79.9170  125.4390   17.0700 O.3   7695  MOL7695    -0.4105
  36084  H         80.6060  124.7420   17.0890 H     7695  MOL7695     0.2052
  36085  H         80.2890  126.2540   17.4970 H     7695  MOL7695     0.2052
  36086  O        104.2710   92.2390  263.2790 O.3   7696  MOL7696    -0.4105
  36087  H        105.2360   92.1260  263.4050 H     7696  MOL7696     0.2052
  36088  H        104.0130   91.7860  262.4350 H     7696  MOL7696     0.2052
  36089  O        107.4700   11.1730   30.1700 O.3   7697  MOL7697    -0.4105
  36090  H        107.0160   10.8710   30.9840 H     7697  MOL7697     0.2052
  36091  H        108.0050   10.4170   29.8140 H     7697  MOL7697     0.2052
  36092  O        102.2260   32.0880  257.8070 O.3   7698  MOL7698    -0.4105
  36093  H        103.0470   32.4330  258.2180 H     7698  MOL7698     0.2052
  36094  H        101.9350   32.7310  257.1090 H     7698  MOL7698     0.2052
  36095  O         10.9820  121.8120   89.7910 O.3   7699  MOL7699    -0.4105
  36096  H         11.2980  121.3800   90.6110 H     7699  MOL7699     0.2052
  36097  H         11.5790  121.5380   89.0460 H     7699  MOL7699     0.2052
  36098  O        131.2320   41.4670  261.8660 O.3   7700  MOL7700    -0.4105
  36099  H        132.0230   41.8770  262.2740 H     7700  MOL7700     0.2052
  36100  H        131.3830   41.4090  260.8860 H     7700  MOL7700     0.2052
  36101  O          2.4930  141.2370  233.9730 O.3   7701  MOL7701    -0.4105
  36102  H          2.8770  141.8730  233.3330 H     7701  MOL7701     0.2052
  36103  H          2.8760  140.3410  233.7880 H     7701  MOL7701     0.2052
  36104  O         77.6230   79.2240  237.5840 O.3   7702  MOL7702    -0.4105
  36105  H         78.5330   78.8840  237.7120 H     7702  MOL7702     0.2052
  36106  H         77.6640   80.2140  237.5400 H     7702  MOL7702     0.2052
  36107  O        104.4530  122.5740   25.4730 O.3   7703  MOL7703    -0.4105
  36108  H        104.7990  122.8120   24.5870 H     7703  MOL7703     0.2052
  36109  H        103.6480  122.0070   25.3500 H     7703  MOL7703     0.2052
  36110  O         97.7180  119.0440  193.4200 O.3   7704  MOL7704    -0.4105
  36111  H         97.5440  119.9800  193.6560 H     7704  MOL7704     0.2052
  36112  H         96.9020  118.5170  193.6190 H     7704  MOL7704     0.2052
  36113  O         73.9490  159.3810  266.8030 O.3   7705  MOL7705    -0.4105
  36114  H         74.1870  159.9300  267.5800 H     7705  MOL7705     0.2052
  36115  H         73.0740  159.6970  266.4560 H     7705  MOL7705     0.2052
  36116  O         77.1480   83.0590   26.6740 O.3   7706  MOL7706    -0.4105
  36117  H         77.9960   82.9380   26.1970 H     7706  MOL7706     0.2052
  36118  H         76.4720   83.3870   26.0270 H     7706  MOL7706     0.2052
  36119  O         70.1840   13.8960  139.6760 O.3   7707  MOL7707    -0.4105
  36120  H         69.4860   14.4940  140.0150 H     7707  MOL7707     0.2052
  36121  H         71.0660   14.3100  139.8620 H     7707  MOL7707     0.2052
  36122  O         66.6260  145.7880  202.1640 O.3   7708  MOL7708    -0.4105
  36123  H         65.6970  145.5580  202.3790 H     7708  MOL7708     0.2052
  36124  H         67.1590  144.9510  202.1540 H     7708  MOL7708     0.2052
  36125  O         15.9840   48.0340  192.0320 O.3   7709  MOL7709    -0.4105
  36126  H         16.7690   48.0530  191.4470 H     7709  MOL7709     0.2052
  36127  H         15.2380   48.4940  191.5660 H     7709  MOL7709     0.2052
  36128  O         67.5810   36.4320  183.5360 O.3   7710  MOL7710    -0.4105
  36129  H         67.2830   35.8390  182.8150 H     7710  MOL7710     0.2052
  36130  H         67.5420   37.3670  183.2060 H     7710  MOL7710     0.2052
  36131  O        120.6400   64.8020  264.1230 O.3   7711  MOL7711    -0.4105
  36132  H        120.7130   65.6950  263.7270 H     7711  MOL7711     0.2052
  36133  H        121.5550   64.4750  264.3220 H     7711  MOL7711     0.2052
  36134  O         89.5850  159.4370  149.7750 O.3   7712  MOL7712    -0.4105
  36135  H         89.7340  160.1050  150.4760 H     7712  MOL7712     0.2052
  36136  H         88.6450  159.1250  149.8370 H     7712  MOL7712     0.2052
  36137  O         81.7010  193.2680  125.6810 O.3   7713  MOL7713    -0.4105
  36138  H         80.9710  193.9190  125.6330 H     7713  MOL7713     0.2052
  36139  H         81.7420  192.7830  124.8160 H     7713  MOL7713     0.2052
  36140  O        129.4160  182.0150  295.4380 O.3   7714  MOL7714    -0.4105
  36141  H        129.4500  182.7420  294.7810 H     7714  MOL7714     0.2052
  36142  H        130.2060  181.4320  295.2970 H     7714  MOL7714     0.2052
  36143  O         69.4170  137.2010  267.3310 O.3   7715  MOL7715    -0.4105
  36144  H         68.9600  136.5140  267.8590 H     7715  MOL7715     0.2052
  36145  H         69.4650  136.8890  266.3900 H     7715  MOL7715     0.2052
  36146  O        142.8300   32.8600  121.5670 O.3   7716  MOL7716    -0.4105
  36147  H        142.2950   32.6520  122.3610 H     7716  MOL7716     0.2052
  36148  H        142.2160   32.9530  120.7940 H     7716  MOL7716     0.2052
  36149  O         83.5040   20.7910  251.3380 O.3   7717  MOL7717    -0.4105
  36150  H         83.5160   21.6210  251.8600 H     7717  MOL7717     0.2052
  36151  H         83.1150   20.9910  250.4470 H     7717  MOL7717     0.2052
  36152  O         88.1260  182.7350    9.2710 O.3   7718  MOL7718    -0.4105
  36153  H         88.4520  182.1960   10.0210 H     7718  MOL7718     0.2052
  36154  H         88.8220  183.4050    9.0440 H     7718  MOL7718     0.2052
  36155  O         88.4100  157.6130  161.0220 O.3   7719  MOL7719    -0.4105
  36156  H         87.6830  158.1830  160.6930 H     7719  MOL7719     0.2052
  36157  H         89.1400  157.6230  160.3500 H     7719  MOL7719     0.2052
  36158  O         28.3620  115.4600  207.1210 O.3   7720  MOL7720    -0.4105
  36159  H         27.6060  115.6800  206.5380 H     7720  MOL7720     0.2052
  36160  H         29.1110  116.0720  206.9010 H     7720  MOL7720     0.2052
  36161  O         51.3010  108.3490  206.3000 O.3   7721  MOL7721    -0.4105
  36162  H         50.9630  107.5540  205.8350 H     7721  MOL7721     0.2052
  36163  H         51.4690  109.0560  205.6240 H     7721  MOL7721     0.2052
  36164  O         74.0650  146.7630  180.4970 O.3   7722  MOL7722    -0.4105
  36165  H         73.3350  147.3620  180.2350 H     7722  MOL7722     0.2052
  36166  H         73.7230  145.8320  180.4840 H     7722  MOL7722     0.2052
  36167  O         65.0020   32.9320   48.4310 O.3   7723  MOL7723    -0.4105
  36168  H         64.3300   32.4090   47.9460 H     7723  MOL7723     0.2052
  36169  H         65.6810   32.3060   48.7930 H     7723  MOL7723     0.2052
  36170  O         29.6290  107.8470  263.2100 O.3   7724  MOL7724    -0.4105
  36171  H         29.0230  107.0810  263.1360 H     7724  MOL7724     0.2052
  36172  H         29.7470  108.2390  262.3060 H     7724  MOL7724     0.2052
  36173  O         36.4070   56.8160  212.0770 O.3   7725  MOL7725    -0.4105
  36174  H         36.2280   56.7620  211.1150 H     7725  MOL7725     0.2052
  36175  H         35.7280   56.2690  212.5500 H     7725  MOL7725     0.2052
  36176  O          2.4990   72.5530   61.3790 O.3   7726  MOL7726    -0.4105
  36177  H          2.0840   71.6740   61.5080 H     7726  MOL7726     0.2052
  36178  H          3.4830   72.4280   61.3400 H     7726  MOL7726     0.2052
  36179  O         24.4740  150.6760   65.4050 O.3   7727  MOL7727    -0.4105
  36180  H         24.2980  149.9650   64.7540 H     7727  MOL7727     0.2052
  36181  H         25.4210  150.9550   65.3130 H     7727  MOL7727     0.2052
  36182  O        187.6000    9.4870  220.0220 O.3   7728  MOL7728    -0.4105
  36183  H        188.4340    8.9820  220.1170 H     7728  MOL7728     0.2052
  36184  H        187.3900    9.5620  219.0560 H     7728  MOL7728     0.2052
  36185  O         85.2520  187.1200  236.2130 O.3   7729  MOL7729    -0.4105
  36186  H         85.5390  188.0460  236.0700 H     7729  MOL7729     0.2052
  36187  H         84.3730  187.1350  236.6730 H     7729  MOL7729     0.2052
  36188  O         11.4520   93.2740  199.4150 O.3   7730  MOL7730    -0.4105
  36189  H         12.3030   92.9420  199.7690 H     7730  MOL7730     0.2052
  36190  H         11.5770   93.4890  198.4550 H     7730  MOL7730     0.2052
  36191  O        166.6870   80.5840  244.2820 O.3   7731  MOL7731    -0.4105
  36192  H        166.7720   81.2770  243.5940 H     7731  MOL7731     0.2052
  36193  H        167.0080   79.7260  243.9000 H     7731  MOL7731     0.2052
  36194  O        167.6210  193.4810   89.7400 O.3   7732  MOL7732    -0.4105
  36195  H        167.4140  194.4380   89.7180 H     7732  MOL7732     0.2052
  36196  H        166.8100  192.9950   90.0410 H     7732  MOL7732     0.2052
  36197  O         91.7960  136.4790  251.7530 O.3   7733  MOL7733    -0.4105
  36198  H         91.2200  137.2720  251.7740 H     7733  MOL7733     0.2052
  36199  H         92.7370  136.7810  251.6690 H     7733  MOL7733     0.2052
  36200  O        190.8390   29.4190   64.6440 O.3   7734  MOL7734    -0.4105
  36201  H        191.6250   29.9150   64.3320 H     7734  MOL7734     0.2052
  36202  H        190.1490   30.0750   64.9220 H     7734  MOL7734     0.2052
  36203  O        167.4330   37.8350  151.7250 O.3   7735  MOL7735    -0.4105
  36204  H        168.2660   38.2580  151.4290 H     7735  MOL7735     0.2052
  36205  H        167.6540   36.9470  152.1090 H     7735  MOL7735     0.2052
  36206  O        171.2110  140.8920  107.0620 O.3   7736  MOL7736    -0.4105
  36207  H        170.2320  140.9140  107.0700 H     7736  MOL7736     0.2052
  36208  H        171.5410  141.8230  106.9630 H     7736  MOL7736     0.2052
  36209  O         69.6980   61.8000   13.3310 O.3   7737  MOL7737    -0.4105
  36210  H         69.2390   62.2320   14.0820 H     7737  MOL7737     0.2052
  36211  H         70.3000   61.1000   13.6970 H     7737  MOL7737     0.2052
  36212  O        178.4250  136.2450   12.8480 O.3   7738  MOL7738    -0.4105
  36213  H        178.7540  136.9260   13.4720 H     7738  MOL7738     0.2052
  36214  H        178.5680  136.5760   11.9240 H     7738  MOL7738     0.2052
  36215  O          2.8460  188.4370    5.0850 O.3   7739  MOL7739    -0.4105
  36216  H          2.5410  187.5540    4.7880 H     7739  MOL7739     0.2052
  36217  H          2.6060  188.5430    6.0420 H     7739  MOL7739     0.2052
  36218  O          9.3700  153.9150   57.3090 O.3   7740  MOL7740    -0.4105
  36219  H         10.0680  153.8440   56.6240 H     7740  MOL7740     0.2052
  36220  H          8.7140  154.5980   57.0140 H     7740  MOL7740     0.2052
  36221  O        118.7720  173.9610  209.6910 O.3   7741  MOL7741    -0.4105
  36222  H        119.6040  173.9190  209.1750 H     7741  MOL7741     0.2052
  36223  H        118.0780  173.4460  209.2030 H     7741  MOL7741     0.2052
  36224  O        144.5590   18.1310  272.3720 O.3   7742  MOL7742    -0.4105
  36225  H        143.8500   18.3540  273.0110 H     7742  MOL7742     0.2052
  36226  H        144.5890   17.1450  272.2720 H     7742  MOL7742     0.2052
  36227  O         17.1760   37.9410   94.8790 O.3   7743  MOL7743    -0.4105
  36228  H         16.9220   37.0110   95.0560 H     7743  MOL7743     0.2052
  36229  H         17.9230   37.9390   94.2260 H     7743  MOL7743     0.2052
  36230  O        176.7390   34.6760  208.1970 O.3   7744  MOL7744    -0.4105
  36231  H        175.8350   35.0080  208.3770 H     7744  MOL7744     0.2052
  36232  H        176.6770   33.7100  207.9750 H     7744  MOL7744     0.2052
  36233  O        134.0390   47.0810   29.3300 O.3   7745  MOL7745    -0.4105
  36234  H        133.0940   47.0400   29.5860 H     7745  MOL7745     0.2052
  36235  H        134.5490   47.4670   30.0880 H     7745  MOL7745     0.2052
  36236  O         67.6200   28.9830  219.3360 O.3   7746  MOL7746    -0.4105
  36237  H         67.8810   29.7550  219.8810 H     7746  MOL7746     0.2052
  36238  H         66.6310   28.9130  219.3510 H     7746  MOL7746     0.2052
  36239  O        157.7530  182.3720  179.4470 O.3   7747  MOL7747    -0.4105
  36240  H        157.1170  181.6410  179.5950 H     7747  MOL7747     0.2052
  36241  H        157.2430  183.1750  179.1670 H     7747  MOL7747     0.2052
  36242  O         11.2710  129.1080  265.3300 O.3   7748  MOL7748    -0.4105
  36243  H         10.3290  129.3360  265.4740 H     7748  MOL7748     0.2052
  36244  H         11.7740  129.9500  265.1790 H     7748  MOL7748     0.2052
  36245  O         92.4260  181.4160  230.2350 O.3   7749  MOL7749    -0.4105
  36246  H         92.6390  180.6830  229.6200 H     7749  MOL7749     0.2052
  36247  H         93.2210  181.5820  230.8070 H     7749  MOL7749     0.2052
  36248  O         84.6450  168.1990   78.6800 O.3   7750  MOL7750    -0.4105
  36249  H         85.5250  168.6200   78.7670 H     7750  MOL7750     0.2052
  36250  H         84.5860  167.7850   77.7800 H     7750  MOL7750     0.2052
  36251  O         96.4290  197.5970   24.4730 O.3   7751  MOL7751    -0.4105
  36252  H         96.5560  196.8060   25.0370 H     7751  MOL7751     0.2052
  36253  H         96.9370  198.3500   24.8730 H     7751  MOL7751     0.2052
  36254  O        195.3670   16.0330  221.2390 O.3   7752  MOL7752    -0.4105
  36255  H        194.9870   16.9130  221.4440 H     7752  MOL7752     0.2052
  36256  H        194.6530   15.4720  220.8390 H     7752  MOL7752     0.2052
  36257  O        115.7240   60.3100   70.8020 O.3   7753  MOL7753    -0.4105
  36258  H        115.6800   61.1140   71.3610 H     7753  MOL7753     0.2052
  36259  H        114.9600   59.7230   71.0420 H     7753  MOL7753     0.2052
  36260  O        130.7290   81.3500  236.7780 O.3   7754  MOL7754    -0.4105
  36261  H        130.4950   82.2850  236.9540 H     7754  MOL7754     0.2052
  36262  H        129.9570   80.9160  236.3300 H     7754  MOL7754     0.2052
  36263  O          4.0510  117.1750  295.7980 O.3   7755  MOL7755    -0.4105
  36264  H          3.5320  117.6890  295.1450 H     7755  MOL7755     0.2052
  36265  H          4.9030  116.8990  295.3700 H     7755  MOL7755     0.2052
  36266  O          0.1400  156.3050  208.6520 O.3   7756  MOL7756    -0.4105
  36267  H          0.2320  157.2230  208.3220 H     7756  MOL7756     0.2052
  36268  H          1.0190  156.0130  209.0090 H     7756  MOL7756     0.2052
  36269  O        174.7960   74.6460   82.7110 O.3   7757  MOL7757    -0.4105
  36270  H        175.6810   74.9930   82.9510 H     7757  MOL7757     0.2052
  36271  H        174.1110   75.2090   83.1560 H     7757  MOL7757     0.2052
  36272  O         27.7830  182.3240    5.4540 O.3   7758  MOL7758    -0.4105
  36273  H         27.2710  181.4880    5.4500 H     7758  MOL7758     0.2052
  36274  H         28.7480  182.0970    5.4570 H     7758  MOL7758     0.2052
  36275  O        128.6220   38.4910   63.9250 O.3   7759  MOL7759    -0.4105
  36276  H        128.9590   38.1960   63.0540 H     7759  MOL7759     0.2052
  36277  H        127.6590   38.2610   63.9800 H     7759  MOL7759     0.2052
  36278  O        111.3360  138.2630  197.3570 O.3   7760  MOL7760    -0.4105
  36279  H        111.5110  137.7320  196.5530 H     7760  MOL7760     0.2052
  36280  H        112.2010  138.6170  197.6900 H     7760  MOL7760     0.2052
  36281  O         20.1990   82.2070  244.9230 O.3   7761  MOL7761    -0.4105
  36282  H         20.4870   82.7160  245.7090 H     7761  MOL7761     0.2052
  36283  H         19.6330   81.4520  245.2310 H     7761  MOL7761     0.2052
  36284  O         98.1540  175.5840  264.7060 O.3   7762  MOL7762    -0.4105
  36285  H         98.6990  175.8840  265.4640 H     7762  MOL7762     0.2052
  36286  H         97.2200  175.8850  264.8570 H     7762  MOL7762     0.2052
  36287  O         16.5930  194.4290  246.9160 O.3   7763  MOL7763    -0.4105
  36288  H         15.7960  194.4300  246.3460 H     7763  MOL7763     0.2052
  36289  H         16.7790  195.3640  247.1920 H     7763  MOL7763     0.2052
  36290  O         26.6020   70.5540   56.4200 O.3   7764  MOL7764    -0.4105
  36291  H         26.2500   69.6610   56.2210 H     7764  MOL7764     0.2052
  36292  H         27.0400   70.5240   57.3100 H     7764  MOL7764     0.2052
  36293  O         99.1810   88.8580   66.5870 O.3   7765  MOL7765    -0.4105
  36294  H         98.2310   88.6590   66.4480 H     7765  MOL7765     0.2052
  36295  H         99.3680   89.7570   66.2120 H     7765  MOL7765     0.2052
  36296  O         83.3570  111.4770  281.2150 O.3   7766  MOL7766    -0.4105
  36297  H         83.1800  110.5150  281.1480 H     7766  MOL7766     0.2052
  36298  H         84.3350  111.6060  281.3240 H     7766  MOL7766     0.2052
  36299  O         22.4700  137.1670  272.1680 O.3   7767  MOL7767    -0.4105
  36300  H         22.4050  138.1250  272.3630 H     7767  MOL7767     0.2052
  36301  H         23.2640  137.0200  271.5920 H     7767  MOL7767     0.2052
  36302  O         99.8160   45.8720  251.9680 O.3   7768  MOL7768    -0.4105
  36303  H         99.6910   44.9730  252.3380 H     7768  MOL7768     0.2052
  36304  H         98.9500   46.1750  251.5890 H     7768  MOL7768     0.2052
  36305  O         62.9630   93.6680  281.6470 O.3   7769  MOL7769    -0.4105
  36306  H         63.0110   92.9560  280.9750 H     7769  MOL7769     0.2052
  36307  H         62.4830   94.4400  281.2490 H     7769  MOL7769     0.2052
  36308  O         44.0320  138.9860  274.7540 O.3   7770  MOL7770    -0.4105
  36309  H         43.7470  138.0660  274.9350 H     7770  MOL7770     0.2052
  36310  H         44.1100  139.1000  273.7710 H     7770  MOL7770     0.2052
  36311  O         61.0170   46.1690  110.8420 O.3   7771  MOL7771    -0.4105
  36312  H         60.3160   45.5200  111.0590 H     7771  MOL7771     0.2052
  36313  H         61.8900   45.6970  110.8490 H     7771  MOL7771     0.2052
  36314  O        131.0740   31.4450   99.2480 O.3   7772  MOL7772    -0.4105
  36315  H        132.0360   31.5720   99.3880 H     7772  MOL7772     0.2052
  36316  H        130.6160   32.3040   99.4430 H     7772  MOL7772     0.2052
  36317  O         87.3240   23.7500   23.9290 O.3   7773  MOL7773    -0.4105
  36318  H         88.2060   23.9340   23.5440 H     7773  MOL7773     0.2052
  36319  H         87.4490   23.1880   24.7370 H     7773  MOL7773     0.2052
  36320  O        172.4840   63.1430    2.2740 O.3   7774  MOL7774    -0.4105
  36321  H        172.3490   62.9560    3.2270 H     7774  MOL7774     0.2052
  36322  H        171.6680   63.5870    1.9260 H     7774  MOL7774     0.2052
  36323  O        108.6490  144.8490   70.7060 O.3   7775  MOL7775    -0.4105
  36324  H        108.2980  144.0970   70.1840 H     7775  MOL7775     0.2052
  36325  H        108.1370  144.9050   71.5540 H     7775  MOL7775     0.2052
  36326  O        102.1190   86.3960   57.3830 O.3   7776  MOL7776    -0.4105
  36327  H        102.9560   86.9040   57.4290 H     7776  MOL7776     0.2052
  36328  H        101.3660   87.0410   57.3540 H     7776  MOL7776     0.2052
  36329  O         88.9280  186.6690   22.2590 O.3   7777  MOL7777    -0.4105
  36330  H         89.1100  186.8650   23.2020 H     7777  MOL7777     0.2052
  36331  H         89.7580  186.8340   21.7410 H     7777  MOL7777     0.2052
  36332  O         51.2290  109.0930    3.9200 O.3   7778  MOL7778    -0.4105
  36333  H         51.8430  108.3300    3.9510 H     7778  MOL7778     0.2052
  36334  H         51.7670  109.9210    3.8280 H     7778  MOL7778     0.2052
  36335  O         10.1610  181.6440  218.4750 O.3   7779  MOL7779    -0.4105
  36336  H          9.9120  182.5910  218.4340 H     7779  MOL7779     0.2052
  36337  H          9.9150  181.2960  219.3710 H     7779  MOL7779     0.2052
  36338  O        195.3430  147.7700  259.6460 O.3   7780  MOL7780    -0.4105
  36339  H        195.5460  147.4880  258.7300 H     7780  MOL7780     0.2052
  36340  H        194.4570  147.3990  259.8960 H     7780  MOL7780     0.2052
  36341  O        172.8260   93.4540   17.6800 O.3   7781  MOL7781    -0.4105
  36342  H        172.5230   92.6210   18.1000 H     7781  MOL7781     0.2052
  36343  H        173.1680   94.0540   18.3930 H     7781  MOL7781     0.2052
  36344  O        175.6120  153.6250  243.2680 O.3   7782  MOL7782    -0.4105
  36345  H        175.0170  153.7200  244.0410 H     7782  MOL7782     0.2052
  36346  H        175.3350  154.2830  242.5800 H     7782  MOL7782     0.2052
  36347  O        153.0780  119.0460   42.4360 O.3   7783  MOL7783    -0.4105
  36348  H        152.4200  118.3390   42.6010 H     7783  MOL7783     0.2052
  36349  H        153.9500  118.7530   42.8090 H     7783  MOL7783     0.2052
  36350  O         99.8850    7.9910  120.7490 O.3   7784  MOL7784    -0.4105
  36351  H         99.6430    7.9730  119.7990 H     7784  MOL7784     0.2052
  36352  H        100.4030    7.1700  120.9530 H     7784  MOL7784     0.2052
  36353  O         67.0840  154.7020   58.9010 O.3   7785  MOL7785    -0.4105
  36354  H         66.6580  155.4950   58.5140 H     7785  MOL7785     0.2052
  36355  H         68.0090  154.6430   58.5460 H     7785  MOL7785     0.2052
  36356  O        188.3280   44.0310  123.1620 O.3   7786  MOL7786    -0.4105
  36357  H        189.2240   43.6830  122.9720 H     7786  MOL7786     0.2052
  36358  H        188.1530   43.9230  124.1330 H     7786  MOL7786     0.2052
  36359  O        123.3160   35.5900  197.0530 O.3   7787  MOL7787    -0.4105
  36360  H        123.1390   34.8880  197.7150 H     7787  MOL7787     0.2052
  36361  H        124.2990   35.6650  196.9370 H     7787  MOL7787     0.2052
  36362  O         86.9870  124.1250  277.7820 O.3   7788  MOL7788    -0.4105
  36363  H         86.3620  123.8460  278.4840 H     7788  MOL7788     0.2052
  36364  H         86.4610  124.3660  276.9760 H     7788  MOL7788     0.2052
  36365  O         45.5610  107.8280  124.0360 O.3   7789  MOL7789    -0.4105
  36366  H         45.7100  107.0290  123.4890 H     7789  MOL7789     0.2052
  36367  H         45.7350  108.6260  123.4720 H     7789  MOL7789     0.2052
  36368  O        160.5710   22.3810   61.8030 O.3   7790  MOL7790    -0.4105
  36369  H        161.0620   23.2290   61.8340 H     7790  MOL7790     0.2052
  36370  H        159.6000   22.5840   61.7920 H     7790  MOL7790     0.2052
  36371  O         37.6030  174.2100  153.3070 O.3   7791  MOL7791    -0.4105
  36372  H         37.0160  174.6780  152.6760 H     7791  MOL7791     0.2052
  36373  H         38.4960  174.1120  152.8850 H     7791  MOL7791     0.2052
  36374  O        174.6990   93.5250   47.5490 O.3   7792  MOL7792    -0.4105
  36375  H        175.0570   94.2840   48.0550 H     7792  MOL7792     0.2052
  36376  H        174.4780   93.8380   46.6340 H     7792  MOL7792     0.2052
  36377  O         84.0350   23.7330  172.1000 O.3   7793  MOL7793    -0.4105
  36378  H         84.5930   22.9750  172.3700 H     7793  MOL7793     0.2052
  36379  H         83.1090   23.4030  171.9630 H     7793  MOL7793     0.2052
  36380  O        100.1170   16.6160  248.7870 O.3   7794  MOL7794    -0.4105
  36381  H        100.1860   16.0640  249.5940 H     7794  MOL7794     0.2052
  36382  H         99.4860   16.1740  248.1610 H     7794  MOL7794     0.2052
  36383  O        135.2950  131.1350   66.6910 O.3   7795  MOL7795    -0.4105
  36384  H        134.8030  131.9690   66.8410 H     7795  MOL7795     0.2052
  36385  H        134.6430  130.4310   66.4380 H     7795  MOL7795     0.2052
  36386  O         53.5850  107.4870   58.5340 O.3   7796  MOL7796    -0.4105
  36387  H         53.0870  108.0100   59.1970 H     7796  MOL7796     0.2052
  36388  H         53.0630  106.6690   58.3270 H     7796  MOL7796     0.2052
  36389  O         66.3330  135.0360   41.6180 O.3   7797  MOL7797    -0.4105
  36390  H         65.5420  134.7080   42.0950 H     7797  MOL7797     0.2052
  36391  H         66.0390  135.7170   40.9600 H     7797  MOL7797     0.2052
  36392  O         95.1230  191.7190  198.4900 O.3   7798  MOL7798    -0.4105
  36393  H         94.5790  192.5130  198.3070 H     7798  MOL7798     0.2052
  36394  H         94.7810  190.9730  197.9330 H     7798  MOL7798     0.2052
  36395  O        107.2550  156.0340   49.7370 O.3   7799  MOL7799    -0.4105
  36396  H        106.2890  155.9100   49.8460 H     7799  MOL7799     0.2052
  36397  H        107.5760  156.6290   50.4630 H     7799  MOL7799     0.2052
  36398  O         61.9850  122.3310  186.8280 O.3   7800  MOL7800    -0.4105
  36399  H         61.2160  121.7230  186.8110 H     7800  MOL7800     0.2052
  36400  H         62.8130  121.7840  186.8400 H     7800  MOL7800     0.2052
  36401  O         84.8380  163.7670  282.2380 O.3   7801  MOL7801    -0.4105
  36402  H         85.6930  163.9270  282.6890 H     7801  MOL7801     0.2052
  36403  H         84.9440  163.9980  281.2790 H     7801  MOL7801     0.2052
  36404  O          4.4320  131.7500  263.6530 O.3   7802  MOL7802    -0.4105
  36405  H          5.3810  131.9820  263.7380 H     7802  MOL7802     0.2052
  36406  H          3.9340  132.5680  263.3930 H     7802  MOL7802     0.2052
  36407  O        127.1600   18.1980  104.2250 O.3   7803  MOL7803    -0.4105
  36408  H        126.9950   17.6580  103.4240 H     7803  MOL7803     0.2052
  36409  H        126.3230   18.6820  104.4500 H     7803  MOL7803     0.2052
  36410  O         17.1920   13.8570  116.7300 O.3   7804  MOL7804    -0.4105
  36411  H         16.3480   14.2760  116.4610 H     7804  MOL7804     0.2052
  36412  H         17.7770   14.5580  117.1190 H     7804  MOL7804     0.2052
  36413  O         79.2270  175.3080   60.1200 O.3   7805  MOL7805    -0.4105
  36414  H         78.7580  176.0690   59.7170 H     7805  MOL7805     0.2052
  36415  H         78.5550  174.6150   60.3480 H     7805  MOL7805     0.2052
  36416  O        123.3280  158.8110  124.0280 O.3   7806  MOL7806    -0.4105
  36417  H        122.8450  159.0780  124.8380 H     7806  MOL7806     0.2052
  36418  H        122.8430  158.0510  123.6140 H     7806  MOL7806     0.2052
  36419  O         60.4560   10.9500   72.5060 O.3   7807  MOL7807    -0.4105
  36420  H         60.9950   10.2420   72.0950 H     7807  MOL7807     0.2052
  36421  H         61.0650   11.6840   72.7800 H     7807  MOL7807     0.2052
  36422  O        126.4710   88.5020   45.1020 O.3   7808  MOL7808    -0.4105
  36423  H        125.5050   88.3560   45.1810 H     7808  MOL7808     0.2052
  36424  H        126.6720   89.4230   45.4100 H     7808  MOL7808     0.2052
  36425  O        158.5070   87.9210  222.1470 O.3   7809  MOL7809    -0.4105
  36426  H        158.0570   87.9920  223.0140 H     7809  MOL7809     0.2052
  36427  H        158.0440   88.5200  221.5060 H     7809  MOL7809     0.2052
  36428  O        106.4860  112.2810  280.5900 O.3   7810  MOL7810    -0.4105
  36429  H        106.8070  113.0650  280.0970 H     7810  MOL7810     0.2052
  36430  H        106.3990  112.5290  281.5460 H     7810  MOL7810     0.2052
  36431  O         35.1490  161.9470  194.3900 O.3   7811  MOL7811    -0.4105
  36432  H         34.7690  162.8470  194.4650 H     7811  MOL7811     0.2052
  36433  H         34.7570  161.5100  193.5900 H     7811  MOL7811     0.2052
  36434  O        170.9050   91.5840  246.0120 O.3   7812  MOL7812    -0.4105
  36435  H        171.8320   91.2850  246.1150 H     7812  MOL7812     0.2052
  36436  H        170.8840   92.5710  246.1110 H     7812  MOL7812     0.2052
  36437  O        161.9230  114.9470  110.7740 O.3   7813  MOL7813    -0.4105
  36438  H        162.6410  114.5540  110.2350 H     7813  MOL7813     0.2052
  36439  H        162.3010  115.7060  111.2890 H     7813  MOL7813     0.2052
  36440  O        156.2200   89.7560  119.4070 O.3   7814  MOL7814    -0.4105
  36441  H        155.4240   90.1770  119.7930 H     7814  MOL7814     0.2052
  36442  H        156.6540   90.4100  118.8000 H     7814  MOL7814     0.2052
  36443  O         14.2220   30.0510  165.3260 O.3   7815  MOL7815    -0.4105
  36444  H         13.4330   29.6170  165.7130 H     7815  MOL7815     0.2052
  36445  H         14.5650   29.4760  164.5930 H     7815  MOL7815     0.2052
  36446  O         38.0660  122.9580  156.0440 O.3   7816  MOL7816    -0.4105
  36447  H         37.2860  122.7810  156.6090 H     7816  MOL7816     0.2052
  36448  H         38.5170  122.0940  155.8570 H     7816  MOL7816     0.2052
  36449  O        145.5370   57.3410   75.1650 O.3   7817  MOL7817    -0.4105
  36450  H        146.2670   56.6880   75.1920 H     7817  MOL7817     0.2052
  36451  H        145.9350   58.2490   75.1040 H     7817  MOL7817     0.2052
  36452  O         69.6560  192.0710   96.5370 O.3   7818  MOL7818    -0.4105
  36453  H         70.4840  191.6430   96.8420 H     7818  MOL7818     0.2052
  36454  H         69.8310  193.0410   96.4260 H     7818  MOL7818     0.2052
  36455  O        196.3040  128.5340  148.1210 O.3   7819  MOL7819    -0.4105
  36456  H        195.5490  129.1000  148.3860 H     7819  MOL7819     0.2052
  36457  H        197.1290  129.0850  148.1470 H     7819  MOL7819     0.2052
  36458  O        131.2280  111.2980   27.2370 O.3   7820  MOL7820    -0.4105
  36459  H        131.3080  112.2240   27.5460 H     7820  MOL7820     0.2052
  36460  H        130.2900  111.0040   27.3750 H     7820  MOL7820     0.2052
  36461  O         35.6820  115.4470  212.7030 O.3   7821  MOL7821    -0.4105
  36462  H         35.4250  116.2530  213.1980 H     7821  MOL7821     0.2052
  36463  H         36.6380  115.5280  212.4520 H     7821  MOL7821     0.2052
  36464  O         21.9620  162.2550  131.1260 O.3   7822  MOL7822    -0.4105
  36465  H         21.0700  162.6560  131.1810 H     7822  MOL7822     0.2052
  36466  H         21.8580  161.2680  131.1000 H     7822  MOL7822     0.2052
  36467  O          9.2620  169.8690   21.0700 O.3   7823  MOL7823    -0.4105
  36468  H          9.7720  170.0380   20.2500 H     7823  MOL7823     0.2052
  36469  H          9.7680  170.2490   21.8340 H     7823  MOL7823     0.2052
  36470  O         38.0840  107.9770  236.7180 O.3   7824  MOL7824    -0.4105
  36471  H         37.4700  107.7910  237.4590 H     7824  MOL7824     0.2052
  36472  H         37.5750  108.4410  236.0030 H     7824  MOL7824     0.2052
  36473  O         10.2170   17.7810  291.5290 O.3   7825  MOL7825    -0.4105
  36474  H          9.4690   17.1600  291.6530 H     7825  MOL7825     0.2052
  36475  H          9.8690   18.7060  291.6100 H     7825  MOL7825     0.2052
  36476  O         74.1600   39.7250  276.7650 O.3   7826  MOL7826    -0.4105
  36477  H         73.3390   39.1900  276.7350 H     7826  MOL7826     0.2052
  36478  H         74.2780   40.0610  277.6910 H     7826  MOL7826     0.2052
  36479  O         73.5480   85.7650   35.1130 O.3   7827  MOL7827    -0.4105
  36480  H         74.4170   85.4070   35.3900 H     7827  MOL7827     0.2052
  36481  H         73.6090   86.7550   35.1030 H     7827  MOL7827     0.2052
  36482  O        101.7940   85.2040  209.6430 O.3   7828  MOL7828    -0.4105
  36483  H        100.9550   85.5460  210.0150 H     7828  MOL7828     0.2052
  36484  H        102.4300   85.0620  210.3910 H     7828  MOL7828     0.2052
  36485  O        198.9790   71.9080  240.3130 O.3   7829  MOL7829    -0.4105
  36486  H        198.1010   71.5660  240.0430 H     7829  MOL7829     0.2052
  36487  H        199.3290   71.3270  241.0370 H     7829  MOL7829     0.2052
  36488  O        161.9860  114.7270  117.4240 O.3   7830  MOL7830    -0.4105
  36489  H        161.0810  114.6820  117.0530 H     7830  MOL7830     0.2052
  36490  H        162.3980  113.8280  117.3480 H     7830  MOL7830     0.2052
  36491  O        146.1130   73.7780   49.8060 O.3   7831  MOL7831    -0.4105
  36492  H        145.9450   74.4910   49.1560 H     7831  MOL7831     0.2052
  36493  H        145.3010   73.2100   49.8620 H     7831  MOL7831     0.2052
  36494  O        138.6070  123.1840   20.6550 O.3   7832  MOL7832    -0.4105
  36495  H        138.2880  124.0650   20.9450 H     7832  MOL7832     0.2052
  36496  H        137.9000  122.7670   20.0980 H     7832  MOL7832     0.2052
  36497  O        175.8760   39.4210  191.7400 O.3   7833  MOL7833    -0.4105
  36498  H        175.3500   40.2480  191.7460 H     7833  MOL7833     0.2052
  36499  H        176.8380   39.6650  191.7370 H     7833  MOL7833     0.2052
  36500  O        189.4090   21.5950   28.6060 O.3   7834  MOL7834    -0.4105
  36501  H        188.6200   21.2320   29.0600 H     7834  MOL7834     0.2052
  36502  H        189.1070   22.3010   27.9760 H     7834  MOL7834     0.2052
  36503  O         33.5300  163.4600  170.4480 O.3   7835  MOL7835    -0.4105
  36504  H         32.6470  163.6530  170.8280 H     7835  MOL7835     0.2052
  36505  H         33.4270  162.7380  169.7750 H     7835  MOL7835     0.2052
  36506  O         23.1280  140.8990   39.2640 O.3   7836  MOL7836    -0.4105
  36507  H         23.4050  141.6870   38.7510 H     7836  MOL7836     0.2052
  36508  H         23.8950  140.6070   39.8230 H     7836  MOL7836     0.2052
  36509  O         47.7770   91.1590  226.7030 O.3   7837  MOL7837    -0.4105
  36510  H         47.9000   92.0810  227.0130 H     7837  MOL7837     0.2052
  36511  H         46.9020   91.1020  226.2380 H     7837  MOL7837     0.2052
  36512  O         83.3250   88.0440   73.3800 O.3   7838  MOL7838    -0.4105
  36513  H         83.3020   88.8980   72.9010 H     7838  MOL7838     0.2052
  36514  H         82.4290   87.6230   73.3070 H     7838  MOL7838     0.2052
  36515  O        166.7570   31.3880  103.5890 O.3   7839  MOL7839    -0.4105
  36516  H        165.7820   31.2960  103.6010 H     7839  MOL7839     0.2052
  36517  H        167.1540   30.4790  103.5910 H     7839  MOL7839     0.2052
  36518  O         35.7090   72.0410  181.1660 O.3   7840  MOL7840    -0.4105
  36519  H         35.9260   72.8430  180.6470 H     7840  MOL7840     0.2052
  36520  H         34.7320   72.0400  181.3430 H     7840  MOL7840     0.2052
  36521  O         51.1790  150.5730   13.3990 O.3   7841  MOL7841    -0.4105
  36522  H         50.9770  151.5320   13.3800 H     7841  MOL7841     0.2052
  36523  H         50.3220  150.0750   13.4450 H     7841  MOL7841     0.2052
  36524  O        195.7000   60.1520  263.1730 O.3   7842  MOL7842    -0.4105
  36525  H        195.6080   59.4900  263.8890 H     7842  MOL7842     0.2052
  36526  H        196.3790   59.8220  262.5290 H     7842  MOL7842     0.2052
  36527  O        166.6650  115.2760  133.2220 O.3   7843  MOL7843    -0.4105
  36528  H        165.8790  114.8510  133.6250 H     7843  MOL7843     0.2052
  36529  H        166.4830  115.4120  132.2560 H     7843  MOL7843     0.2052
  36530  O        191.6770  162.1090   75.4380 O.3   7844  MOL7844    -0.4105
  36531  H        191.0150  162.6750   75.8870 H     7844  MOL7844     0.2052
  36532  H        192.5660  162.2940   75.8380 H     7844  MOL7844     0.2052
  36533  O        175.0580   50.4820  249.5260 O.3   7845  MOL7845    -0.4105
  36534  H        174.5040   51.0870  250.0630 H     7845  MOL7845     0.2052
  36535  H        174.7400   50.5210  248.5870 H     7845  MOL7845     0.2052
  36536  O        140.1120  181.5890  104.7670 O.3   7846  MOL7846    -0.4105
  36537  H        139.3260  181.1230  104.4130 H     7846  MOL7846     0.2052
  36538  H        139.8060  182.2400  105.4500 H     7846  MOL7846     0.2052
  36539  O        173.7020   61.2610  106.1680 O.3   7847  MOL7847    -0.4105
  36540  H        173.6010   62.1140  106.6390 H     7847  MOL7847     0.2052
  36541  H        174.4470   61.3510  105.5180 H     7847  MOL7847     0.2052
  36542  O        121.2330  127.8040  271.6220 O.3   7848  MOL7848    -0.4105
  36543  H        121.0710  128.6920  271.2410 H     7848  MOL7848     0.2052
  36544  H        121.0870  127.8550  272.6020 H     7848  MOL7848     0.2052
  36545  O         78.2960  137.3320  223.3650 O.3   7849  MOL7849    -0.4105
  36546  H         79.1230  137.3010  223.8910 H     7849  MOL7849     0.2052
  36547  H         77.5420  137.0780  223.9580 H     7849  MOL7849     0.2052
  36548  O        182.7110   12.5940  111.1870 O.3   7850  MOL7850    -0.4105
  36549  H        183.1080   11.8540  110.6810 H     7850  MOL7850     0.2052
  36550  H        181.7340   12.5990  111.0150 H     7850  MOL7850     0.2052
  36551  O          9.5120   14.1910  248.0260 O.3   7851  MOL7851    -0.4105
  36552  H          8.7860   14.7250  248.4090 H     7851  MOL7851     0.2052
  36553  H         10.3460   14.4000  248.5210 H     7851  MOL7851     0.2052
  36554  O         14.8380   62.3770  229.5920 O.3   7852  MOL7852    -0.4105
  36555  H         14.0100   62.7770  229.2520 H     7852  MOL7852     0.2052
  36556  H         15.3950   62.1090  228.8150 H     7852  MOL7852     0.2052
  36557  O        150.9960  197.6240  130.0920 O.3   7853  MOL7853    -0.4105
  36558  H        150.1300  198.0700  130.1930 H     7853  MOL7853     0.2052
  36559  H        151.4890  197.7050  130.9490 H     7853  MOL7853     0.2052
  36560  O         24.5430   71.8250   51.8400 O.3   7854  MOL7854    -0.4105
  36561  H         23.9330   71.1630   52.2270 H     7854  MOL7854     0.2052
  36562  H         25.2490   72.0240   52.5090 H     7854  MOL7854     0.2052
  36563  O         16.9740   21.0360  214.2280 O.3   7855  MOL7855    -0.4105
  36564  H         16.9890   22.0160  214.2360 H     7855  MOL7855     0.2052
  36565  H         16.1420   20.7420  213.7730 H     7855  MOL7855     0.2052
  36566  O        158.3670  147.3010  261.8310 O.3   7856  MOL7856    -0.4105
  36567  H        158.3940  146.5120  262.4120 H     7856  MOL7856     0.2052
  36568  H        157.9300  147.0440  260.9780 H     7856  MOL7856     0.2052
  36569  O        109.6110  118.6760   36.0500 O.3   7857  MOL7857    -0.4105
  36570  H        108.8860  119.2530   35.7300 H     7857  MOL7857     0.2052
  36571  H        109.4080  118.4110   36.9850 H     7857  MOL7857     0.2052
  36572  O         15.5390  174.0790  143.9940 O.3   7858  MOL7858    -0.4105
  36573  H         14.6340  174.2130  144.3450 H     7858  MOL7858     0.2052
  36574  H         15.7920  174.8850  143.4730 H     7858  MOL7858     0.2052
  36575  O         95.7290  175.9830  157.3250 O.3   7859  MOL7859    -0.4105
  36576  H         95.9850  175.0650  157.5540 H     7859  MOL7859     0.2052
  36577  H         95.5850  176.4850  158.1690 H     7859  MOL7859     0.2052
  36578  O        197.1610  121.7220  257.0570 O.3   7860  MOL7860    -0.4105
  36579  H        196.1890  121.7120  257.1870 H     7860  MOL7860     0.2052
  36580  H        197.5910  121.8500  257.9420 H     7860  MOL7860     0.2052
  36581  O         51.4510   74.7430   71.2710 O.3   7861  MOL7861    -0.4105
  36582  H         51.8590   73.9130   71.5970 H     7861  MOL7861     0.2052
  36583  H         51.1780   75.2840   72.0560 H     7861  MOL7861     0.2052
  36584  O        174.8170  112.0880  245.9060 O.3   7862  MOL7862    -0.4105
  36585  H        174.7740  113.0300  245.6370 H     7862  MOL7862     0.2052
  36586  H        173.8970  111.7160  245.8770 H     7862  MOL7862     0.2052
  36587  O         87.4870   57.5860   18.5320 O.3   7863  MOL7863    -0.4105
  36588  H         87.6940   58.0370   19.3770 H     7863  MOL7863     0.2052
  36589  H         86.9960   58.2240   17.9520 H     7863  MOL7863     0.2052
  36590  O         50.9420   19.2300  201.9110 O.3   7864  MOL7864    -0.4105
  36591  H         51.2620   20.0920  202.2510 H     7864  MOL7864     0.2052
  36592  H         49.9560   19.2000  202.0180 H     7864  MOL7864     0.2052
  36593  O        128.7390   86.1230  186.7960 O.3   7865  MOL7865    -0.4105
  36594  H        128.2770   86.7500  187.3920 H     7865  MOL7865     0.2052
  36595  H        129.7120   86.1810  186.9780 H     7865  MOL7865     0.2052
  36596  O         55.4650  119.4150  225.7720 O.3   7866  MOL7866    -0.4105
  36597  H         55.0120  119.3330  226.6380 H     7866  MOL7866     0.2052
  36598  H         54.9010  119.9760  225.1790 H     7866  MOL7866     0.2052
  36599  O        152.3830  133.4470  120.8570 O.3   7867  MOL7867    -0.4105
  36600  H        153.2400  133.7570  121.2200 H     7867  MOL7867     0.2052
  36601  H        152.4990  132.5130  120.5420 H     7867  MOL7867     0.2052
  36602  O         31.3900  120.8120  106.0290 O.3   7868  MOL7868    -0.4105
  36603  H         32.2680  121.2340  105.9210 H     7868  MOL7868     0.2052
  36604  H         30.9370  120.8080  105.1460 H     7868  MOL7868     0.2052
  36605  O        199.1060  133.7700  235.3750 O.3   7869  MOL7869    -0.4105
  36606  H        198.5800  133.0580  235.7950 H     7869  MOL7869     0.2052
  36607  H        199.9980  133.7940  235.8090 H     7869  MOL7869     0.2052
  36608  O        103.9580   75.5070   72.1840 O.3   7870  MOL7870    -0.4105
  36609  H        103.8600   75.6210   71.2150 H     7870  MOL7870     0.2052
  36610  H        103.1470   75.8720   72.6230 H     7870  MOL7870     0.2052
  36611  O        178.6440  143.0620  263.7380 O.3   7871  MOL7871    -0.4105
  36612  H        178.8390  142.3640  264.3970 H     7871  MOL7871     0.2052
  36613  H        177.7170  143.3830  263.8900 H     7871  MOL7871     0.2052
  36614  O         49.1330    6.5850  180.3080 O.3   7872  MOL7872    -0.4105
  36615  H         48.7610    7.3930  179.8950 H     7872  MOL7872     0.2052
  36616  H         49.4890    6.0040  179.5880 H     7872  MOL7872     0.2052
  36617  O        177.8070   10.3650  293.2320 O.3   7873  MOL7873    -0.4105
  36618  H        177.1550   10.6910  293.8880 H     7873  MOL7873     0.2052
  36619  H        177.5700   10.7430  292.3460 H     7873  MOL7873     0.2052
  36620  O        153.0730  160.1310  204.3230 O.3   7874  MOL7874    -0.4105
  36621  H        152.5040  159.9410  205.0980 H     7874  MOL7874     0.2052
  36622  H        153.4330  159.2710  203.9840 H     7874  MOL7874     0.2052
  36623  O         18.3650   99.8860  286.5320 O.3   7875  MOL7875    -0.4105
  36624  H         19.0660   99.2040  286.4750 H     7875  MOL7875     0.2052
  36625  H         18.7060  100.7170  286.1100 H     7875  MOL7875     0.2052
  36626  O         74.5280   91.9910   33.2800 O.3   7876  MOL7876    -0.4105
  36627  H         74.9070   92.2180   32.4060 H     7876  MOL7876     0.2052
  36628  H         73.5880   92.3070   33.3020 H     7876  MOL7876     0.2052
  36629  O        198.0190  196.8320   28.1280 O.3   7877  MOL7877    -0.4105
  36630  H        197.5880  196.1780   28.7170 H     7877  MOL7877     0.2052
  36631  H        197.3390  197.5040   27.8620 H     7877  MOL7877     0.2052
  36632  O         42.7320   62.8030   93.6340 O.3   7878  MOL7878    -0.4105
  36633  H         43.1350   61.9850   93.9940 H     7878  MOL7878     0.2052
  36634  H         41.7860   62.8410   93.9320 H     7878  MOL7878     0.2052
  36635  O         99.2220  169.1770  157.8730 O.3   7879  MOL7879    -0.4105
  36636  H        100.1090  168.7600  157.8430 H     7879  MOL7879     0.2052
  36637  H         99.3410  170.1620  157.8550 H     7879  MOL7879     0.2052
  36638  O         96.7740   71.7900  245.3420 O.3   7880  MOL7880    -0.4105
  36639  H         97.1930   72.6180  245.0280 H     7880  MOL7880     0.2052
  36640  H         97.4300   71.3040  245.9050 H     7880  MOL7880     0.2052
  36641  O        114.3240   92.0530  291.5970 O.3   7881  MOL7881    -0.4105
  36642  H        113.5340   91.8250  291.0640 H     7881  MOL7881     0.2052
  36643  H        115.1170   92.0370  291.0010 H     7881  MOL7881     0.2052
  36644  O        133.0630   48.0860   71.3970 O.3   7882  MOL7882    -0.4105
  36645  H        133.7970   48.7350   71.4260 H     7882  MOL7882     0.2052
  36646  H        132.5340   48.1780   72.2310 H     7882  MOL7882     0.2052
  36647  O         87.9420   56.9170   53.2280 O.3   7883  MOL7883    -0.4105
  36648  H         87.9290   57.8590   52.9550 H     7883  MOL7883     0.2052
  36649  H         88.4960   56.8390   54.0470 H     7883  MOL7883     0.2052
  36650  O        119.0030  138.0970   23.5100 O.3   7884  MOL7884    -0.4105
  36651  H        119.0800  137.4710   22.7590 H     7884  MOL7884     0.2052
  36652  H        119.7170  137.8840   24.1650 H     7884  MOL7884     0.2052
  36653  O        150.1830   12.4610   80.7090 O.3   7885  MOL7885    -0.4105
  36654  H        150.7920   12.4350   81.4760 H     7885  MOL7885     0.2052
  36655  H        149.6010   11.6590   80.7470 H     7885  MOL7885     0.2052
  36656  O         63.0010   82.4470  234.1660 O.3   7886  MOL7886    -0.4105
  36657  H         62.8040   81.5010  234.0040 H     7886  MOL7886     0.2052
  36658  H         62.1400   82.9290  234.2740 H     7886  MOL7886     0.2052
  36659  O         93.8250   83.9660  258.4870 O.3   7887  MOL7887    -0.4105
  36660  H         93.5940   83.1430  258.0090 H     7887  MOL7887     0.2052
  36661  H         93.9320   83.7480  259.4490 H     7887  MOL7887     0.2052
  36662  O        123.8850  154.4610   55.4530 O.3   7888  MOL7888    -0.4105
  36663  H        124.6840  154.6240   54.9100 H     7888  MOL7888     0.2052
  36664  H        124.1520  154.4690   56.4090 H     7888  MOL7888     0.2052
  36665  O        174.0940   17.0350  247.4840 O.3   7889  MOL7889    -0.4105
  36666  H        173.8100   16.0980  247.5290 H     7889  MOL7889     0.2052
  36667  H        174.3370   17.2410  246.5440 H     7889  MOL7889     0.2052
  36668  O         77.7660   38.1400  232.7820 O.3   7890  MOL7890    -0.4105
  36669  H         77.0020   38.4630  233.3040 H     7890  MOL7890     0.2052
  36670  H         78.4920   37.8950  233.4130 H     7890  MOL7890     0.2052
  36671  O         16.3900   76.5830  191.5620 O.3   7891  MOL7891    -0.4105
  36672  H         17.0060   76.6420  192.3220 H     7891  MOL7891     0.2052
  36673  H         15.6680   77.2500  191.6960 H     7891  MOL7891     0.2052
  36674  O        119.7280  163.8340   77.3850 O.3   7892  MOL7892    -0.4105
  36675  H        120.6970  163.8490   77.2360 H     7892  MOL7892     0.2052
  36676  H        119.4270  164.7620   77.5630 H     7892  MOL7892     0.2052
  36677  O        177.4530  113.6330   55.0110 O.3   7893  MOL7893    -0.4105
  36678  H        178.3950  113.7260   55.2650 H     7893  MOL7893     0.2052
  36679  H        177.0520  112.9140   55.5650 H     7893  MOL7893     0.2052
  36680  O         51.1880   34.4320  125.7410 O.3   7894  MOL7894    -0.4105
  36681  H         51.2000   33.9020  126.5650 H     7894  MOL7894     0.2052
  36682  H         51.1900   35.3920  125.9900 H     7894  MOL7894     0.2052
  36683  O        113.7920   26.9210  151.3260 O.3   7895  MOL7895    -0.4105
  36684  H        114.5140   26.6730  151.9420 H     7895  MOL7895     0.2052
  36685  H        112.9880   27.1430  151.8640 H     7895  MOL7895     0.2052
  36686  O        123.9670   49.8370   30.6880 O.3   7896  MOL7896    -0.4105
  36687  H        124.6560   49.2170   31.0050 H     7896  MOL7896     0.2052
  36688  H        123.1970   49.3050   30.3570 H     7896  MOL7896     0.2052
  36689  O        142.3480  128.8760  176.4270 O.3   7897  MOL7897    -0.4105
  36690  H        142.0760  128.0200  176.0360 H     7897  MOL7897     0.2052
  36691  H        142.4000  129.5480  175.6990 H     7897  MOL7897     0.2052
  36692  O        118.5280    4.2180  182.1770 O.3   7898  MOL7898    -0.4105
  36693  H        118.4570    4.4060  181.2180 H     7898  MOL7898     0.2052
  36694  H        118.3370    5.0560  182.6720 H     7898  MOL7898     0.2052
  36695  O        141.0840   86.5400   47.6610 O.3   7899  MOL7899    -0.4105
  36696  H        141.5750   85.7000   47.5380 H     7899  MOL7899     0.2052
  36697  H        141.7440   87.2700   47.7870 H     7899  MOL7899     0.2052
  36698  O        105.9410   31.7390  137.7440 O.3   7900  MOL7900    -0.4105
  36699  H        105.5000   31.2760  137.0020 H     7900  MOL7900     0.2052
  36700  H        105.5070   31.4540  138.5900 H     7900  MOL7900     0.2052
  36701  O        144.8900   27.3530  163.3090 O.3   7901  MOL7901    -0.4105
  36702  H        144.6850   28.2200  163.7180 H     7901  MOL7901     0.2052
  36703  H        144.8640   27.4610  162.3230 H     7901  MOL7901     0.2052
  36704  O         61.7520   89.3700  246.2610 O.3   7902  MOL7902    -0.4105
  36705  H         61.0280   89.8570  245.8160 H     7902  MOL7902     0.2052
  36706  H         61.3820   88.5220  246.6190 H     7902  MOL7902     0.2052
  36707  O         20.6810   17.0770  158.9930 O.3   7903  MOL7903    -0.4105
  36708  H         20.7630   17.4960  159.8750 H     7903  MOL7903     0.2052
  36709  H         20.4350   16.1240  159.1230 H     7903  MOL7903     0.2052
  36710  O          0.8280  133.5810  265.4070 O.3   7904  MOL7904    -0.4105
  36711  H          1.0540  132.6980  265.0480 H     7904  MOL7904     0.2052
  36712  H          0.4550  134.1310  264.6700 H     7904  MOL7904     0.2052
  36713  O        198.3430   27.8190  135.2420 O.3   7905  MOL7905    -0.4105
  36714  H        197.6150   28.4620  135.1060 H     7905  MOL7905     0.2052
  36715  H        198.9040   28.1410  135.9950 H     7905  MOL7905     0.2052
  36716  O         41.5660   85.2120   31.3670 O.3   7906  MOL7906    -0.4105
  36717  H         42.0030   85.7710   30.6920 H     7906  MOL7906     0.2052
  36718  H         40.9710   85.7910   31.9120 H     7906  MOL7906     0.2052
  36719  O        144.6630    1.3900   40.1200 O.3   7907  MOL7907    -0.4105
  36720  H        143.7320    1.0840   40.1320 H     7907  MOL7907     0.2052
  36721  H        145.2520    0.5920   40.1480 H     7907  MOL7907     0.2052
  36722  O        123.5460   24.7640  229.3820 O.3   7908  MOL7908    -0.4105
  36723  H        123.1100   25.2140  228.6290 H     7908  MOL7908     0.2052
  36724  H        123.3520   25.2810  230.2070 H     7908  MOL7908     0.2052
  36725  O        111.1660  178.0280  193.1010 O.3   7909  MOL7909    -0.4105
  36726  H        110.2130  177.9660  192.8830 H     7909  MOL7909     0.2052
  36727  H        111.4000  177.2630  193.6880 H     7909  MOL7909     0.2052
  36728  O        160.7500    3.8370  196.3150 O.3   7910  MOL7910    -0.4105
  36729  H        161.7100    4.0320  196.3430 H     7910  MOL7910     0.2052
  36730  H        160.5820    3.0270  196.8630 H     7910  MOL7910     0.2052
  36731  O        194.9290   96.6250   39.8660 O.3   7911  MOL7911    -0.4105
  36732  H        194.4210   95.9490   39.3700 H     7911  MOL7911     0.2052
  36733  H        195.2100   96.2290   40.7320 H     7911  MOL7911     0.2052
  36734  O         92.9770  192.5450  119.6440 O.3   7912  MOL7912    -0.4105
  36735  H         92.3130  191.9040  119.9750 H     7912  MOL7912     0.2052
  36736  H         92.9990  193.3170  120.2670 H     7912  MOL7912     0.2052
  36737  O        186.2420   85.8980    2.9990 O.3   7913  MOL7913    -0.4105
  36738  H        186.7930   85.6230    3.7620 H     7913  MOL7913     0.2052
  36739  H        186.8190   85.9270    2.1930 H     7913  MOL7913     0.2052
  36740  O         78.8700   15.6520   43.5540 O.3   7914  MOL7914    -0.4105
  36741  H         78.6800   14.6910   43.5750 H     7914  MOL7914     0.2052
  36742  H         78.2180   16.1100   44.1450 H     7914  MOL7914     0.2052
  36743  O         17.8730    5.6390  185.6040 O.3   7915  MOL7915    -0.4105
  36744  H         18.3470    6.4900  185.4960 H     7915  MOL7915     0.2052
  36745  H         17.0880    5.6430  184.9970 H     7915  MOL7915     0.2052
  36746  O        157.5310  173.9350  224.7690 O.3   7916  MOL7916    -0.4105
  36747  H        158.4340  174.1060  224.4270 H     7916  MOL7916     0.2052
  36748  H        157.4880  174.2570  225.7060 H     7916  MOL7916     0.2052
  36749  O          1.3540    8.5560   13.4070 O.3   7917  MOL7917    -0.4105
  36750  H          1.5660    9.5120   13.3750 H     7917  MOL7917     0.2052
  36751  H          2.2070    8.0490   13.4220 H     7917  MOL7917     0.2052
  36752  O         20.8320   71.3860  133.8580 O.3   7918  MOL7918    -0.4105
  36753  H         20.1210   71.1130  134.4740 H     7918  MOL7918     0.2052
  36754  H         20.5540   71.1470  132.9370 H     7918  MOL7918     0.2052
  36755  O        195.2290  133.0540  152.0760 O.3   7919  MOL7919    -0.4105
  36756  H        194.5070  133.5240  152.5430 H     7919  MOL7919     0.2052
  36757  H        194.8270  132.5130  151.3470 H     7919  MOL7919     0.2052
  36758  O        135.0230   82.0300   71.8900 O.3   7920  MOL7920    -0.4105
  36759  H        135.9990   81.9500   71.9230 H     7920  MOL7920     0.2052
  36760  H        134.7910   82.9950   71.8690 H     7920  MOL7920     0.2052
  36761  O          2.3600   94.9810  204.6760 O.3   7921  MOL7921    -0.4105
  36762  H          2.2240   95.5530  205.4600 H     7921  MOL7921     0.2052
  36763  H          2.9090   95.4810  204.0180 H     7921  MOL7921     0.2052
  36764  O        171.8410   88.8840   66.6520 O.3   7922  MOL7922    -0.4105
  36765  H        172.6660   88.6050   67.1010 H     7922  MOL7922     0.2052
  36766  H        171.7830   89.8740   66.6980 H     7922  MOL7922     0.2052
  36767  O        104.1110   69.1500    2.8570 O.3   7923  MOL7923    -0.4105
  36768  H        104.2150   70.0460    2.4750 H     7923  MOL7923     0.2052
  36769  H        104.7810   68.5520    2.4350 H     7923  MOL7923     0.2052
  36770  O         40.3510  160.0850  202.0680 O.3   7924  MOL7924    -0.4105
  36771  H         39.4330  159.7420  202.0770 H     7924  MOL7924     0.2052
  36772  H         40.9420  159.3990  202.4740 H     7924  MOL7924     0.2052
  36773  O        119.9480   99.3070  256.5240 O.3   7925  MOL7925    -0.4105
  36774  H        120.6400   99.8690  256.1160 H     7925  MOL7925     0.2052
  36775  H        119.0620   99.6820  256.2850 H     7925  MOL7925     0.2052
  36776  O        197.6390   65.0530  130.4870 O.3   7926  MOL7926    -0.4105
  36777  H        198.4290   64.4730  130.4740 H     7926  MOL7926     0.2052
  36778  H        197.5230   65.4400  129.5810 H     7926  MOL7926     0.2052
  36779  O         20.5710  100.4760  109.0800 O.3   7927  MOL7927    -0.4105
  36780  H         20.1300   99.7060  108.6640 H     7927  MOL7927     0.2052
  36781  H         19.9490  100.8680  109.7460 H     7927  MOL7927     0.2052
  36782  O         71.0320   41.1450  179.4620 O.3   7928  MOL7928    -0.4105
  36783  H         71.0190   40.3000  179.9590 H     7928  MOL7928     0.2052
  36784  H         70.8640   41.8840  180.1020 H     7928  MOL7928     0.2052
  36785  O         41.7160   20.1160   13.8330 O.3   7929  MOL7929    -0.4105
  36786  H         41.2860   19.5410   13.1670 H     7929  MOL7929     0.2052
  36787  H         42.6940   19.9520   13.8010 H     7929  MOL7929     0.2052
  36788  O        167.7490  173.2630    8.4210 O.3   7930  MOL7930    -0.4105
  36789  H        167.1710  173.2360    9.2120 H     7930  MOL7930     0.2052
  36790  H        168.4660  172.5870    8.5380 H     7930  MOL7930     0.2052
  36791  O         16.6590  109.7880   27.3930 O.3   7931  MOL7931    -0.4105
  36792  H         17.1590  110.3740   26.7870 H     7931  MOL7931     0.2052
  36793  H         16.9370  108.8520   27.2190 H     7931  MOL7931     0.2052
  36794  O        188.0350  118.2880  211.8870 O.3   7932  MOL7932    -0.4105
  36795  H        188.9680  118.0430  212.0600 H     7932  MOL7932     0.2052
  36796  H        188.0080  119.2460  211.6320 H     7932  MOL7932     0.2052
  36797  O         23.3150   64.7680   10.4510 O.3   7933  MOL7933    -0.4105
  36798  H         22.7910   63.9400   10.4080 H     7933  MOL7933     0.2052
  36799  H         24.2090   64.5500   10.8210 H     7933  MOL7933     0.2052
  36800  O        115.3280  186.6310   33.3620 O.3   7934  MOL7934    -0.4105
  36801  H        116.2870  186.5350   33.5420 H     7934  MOL7934     0.2052
  36802  H        115.0270  187.4970   33.7430 H     7934  MOL7934     0.2052
  36803  O         65.0250  111.6420  167.9330 O.3   7935  MOL7935    -0.4105
  36804  H         65.7010  112.0290  168.5280 H     7935  MOL7935     0.2052
  36805  H         64.7620  110.7570  168.2960 H     7935  MOL7935     0.2052
  36806  O         24.1720  111.2830  184.7090 O.3   7936  MOL7936    -0.4105
  36807  H         24.8580  110.6230  184.4720 H     7936  MOL7936     0.2052
  36808  H         24.5750  112.1870  184.6420 H     7936  MOL7936     0.2052
  36809  O         63.9670   55.1110  170.6320 O.3   7937  MOL7937    -0.4105
  36810  H         64.6850   55.7780  170.5970 H     7937  MOL7937     0.2052
  36811  H         64.2390   54.3940  171.2620 H     7937  MOL7937     0.2052
  36812  O        173.1220  147.9980  189.6620 O.3   7938  MOL7938    -0.4105
  36813  H        173.6290  147.4310  189.0440 H     7938  MOL7938     0.2052
  36814  H        172.2990  148.3030  189.1980 H     7938  MOL7938     0.2052
  36815  O         16.8840   89.4600  277.9860 O.3   7939  MOL7939    -0.4105
  36816  H         16.9870   90.2390  277.4010 H     7939  MOL7939     0.2052
  36817  H         15.9190   89.2370  278.0390 H     7939  MOL7939     0.2052
  36818  O         33.3100  160.3640  296.5340 O.3   7940  MOL7940    -0.4105
  36819  H         32.3400  160.4390  296.6510 H     7940  MOL7940     0.2052
  36820  H         33.4940  159.5750  295.9620 H     7940  MOL7940     0.2052
  36821  O        169.2270  130.6760  108.5990 O.3   7941  MOL7941    -0.4105
  36822  H        169.0530  129.7250  108.7590 H     7941  MOL7941     0.2052
  36823  H        169.9240  130.9760  109.2380 H     7941  MOL7941     0.2052
  36824  O         16.8010  105.8230  296.0000 O.3   7942  MOL7942    -0.4105
  36825  H         16.2400  106.6250  296.0310 H     7942  MOL7942     0.2052
  36826  H         17.4880  105.8970  296.7130 H     7942  MOL7942     0.2052
  36827  O        126.9720   65.1490  282.1950 O.3   7943  MOL7943    -0.4105
  36828  H        126.7350   66.0080  281.7860 H     7943  MOL7943     0.2052
  36829  H        126.4310   65.0390  283.0200 H     7943  MOL7943     0.2052
  36830  O        156.4930   60.4060   74.5980 O.3   7944  MOL7944    -0.4105
  36831  H        157.3650   60.7440   74.8900 H     7944  MOL7944     0.2052
  36832  H        156.5790   59.4320   74.4280 H     7944  MOL7944     0.2052
  36833  O        186.2440   18.6620   74.4140 O.3   7945  MOL7945    -0.4105
  36834  H        187.1230   18.9760   74.1170 H     7945  MOL7945     0.2052
  36835  H        186.2730   17.6720   74.4780 H     7945  MOL7945     0.2052
  36836  O          8.2990   57.6070  117.7960 O.3   7946  MOL7946    -0.4105
  36837  H          8.4520   56.6390  117.8260 H     7946  MOL7946     0.2052
  36838  H          7.3190   57.7660  117.8000 H     7946  MOL7946     0.2052
  36839  O        179.1960   58.2500   53.2660 O.3   7947  MOL7947    -0.4105
  36840  H        179.3930   58.7690   54.0740 H     7947  MOL7947     0.2052
  36841  H        178.8160   57.3760   53.5430 H     7947  MOL7947     0.2052
  36842  O        187.0610  177.8490  214.1220 O.3   7948  MOL7948    -0.4105
  36843  H        188.0090  177.6420  213.9820 H     7948  MOL7948     0.2052
  36844  H        186.5670  176.9940  214.2160 H     7948  MOL7948     0.2052
  36845  O        163.1530  134.7500  188.7930 O.3   7949  MOL7949    -0.4105
  36846  H        163.6410  135.4390  188.2950 H     7949  MOL7949     0.2052
  36847  H        162.5400  135.2020  189.4290 H     7949  MOL7949     0.2052
  36848  O         58.3390  172.0970   11.4780 O.3   7950  MOL7950    -0.4105
  36849  H         58.2200  171.8840   10.5290 H     7950  MOL7950     0.2052
  36850  H         58.5990  171.2640   11.9520 H     7950  MOL7950     0.2052
  36851  O         71.1400   36.1710  297.2000 O.3   7951  MOL7951    -0.4105
  36852  H         71.5960   35.5980  296.5480 H     7951  MOL7951     0.2052
  36853  H         71.8030   36.4550  297.8810 H     7951  MOL7951     0.2052
  36854  O         71.7380   11.4770  208.1740 O.3   7952  MOL7952    -0.4105
  36855  H         72.1390   11.5010  207.2800 H     7952  MOL7952     0.2052
  36856  H         71.7060   12.4050  208.5250 H     7952  MOL7952     0.2052
  36857  O         83.4080  166.8100  284.6660 O.3   7953  MOL7953    -0.4105
  36858  H         83.2230  166.3410  285.5070 H     7953  MOL7953     0.2052
  36859  H         82.8820  167.6520  284.6580 H     7953  MOL7953     0.2052
  36860  O         23.6990  120.7050  123.2910 O.3   7954  MOL7954    -0.4105
  36861  H         24.3220  120.4910  124.0160 H     7954  MOL7954     0.2052
  36862  H         22.7740  120.6280  123.6440 H     7954  MOL7954     0.2052
  36863  O        113.4600   67.7030  236.3620 O.3   7955  MOL7955    -0.4105
  36864  H        114.1130   67.0260  236.6390 H     7955  MOL7955     0.2052
  36865  H        113.9450   68.5530  236.1960 H     7955  MOL7955     0.2052
  36866  O          1.9980   77.6690   72.8630 O.3   7956  MOL7956    -0.4105
  36867  H          2.5750   78.3500   73.2700 H     7956  MOL7956     0.2052
  36868  H          1.1780   77.5880   73.4150 H     7956  MOL7956     0.2052
  36869  O        143.0530   23.5630  219.1480 O.3   7957  MOL7957    -0.4105
  36870  H        143.3760   22.6550  218.9710 H     7957  MOL7957     0.2052
  36871  H        142.1220   23.5000  219.4850 H     7957  MOL7957     0.2052
  36872  O         14.0450   27.5650  268.6410 O.3   7958  MOL7958    -0.4105
  36873  H         13.2020   28.0660  268.6470 H     7958  MOL7958     0.2052
  36874  H         13.8300   26.5960  268.6460 H     7958  MOL7958     0.2052
  36875  O         95.0580  181.5210  287.2200 O.3   7959  MOL7959    -0.4105
  36876  H         95.0890  181.9800  288.0860 H     7959  MOL7959     0.2052
  36877  H         95.9880  181.4230  286.8880 H     7959  MOL7959     0.2052
  36878  O        180.3030    4.0600  115.9270 O.3   7960  MOL7960    -0.4105
  36879  H        180.3250    4.0770  114.9470 H     7960  MOL7960     0.2052
  36880  H        180.1470    3.1240  116.2180 H     7960  MOL7960     0.2052
  36881  O         52.1170  117.9460  209.4820 O.3   7961  MOL7961    -0.4105
  36882  H         52.3220  118.8100  209.0680 H     7961  MOL7961     0.2052
  36883  H         52.9070  117.6590  210.0090 H     7961  MOL7961     0.2052
  36884  O        128.1690   75.6720   79.2920 O.3   7962  MOL7962    -0.4105
  36885  H        127.9540   74.8950   78.7340 H     7962  MOL7962     0.2052
  36886  H        129.1420   75.8490   79.2160 H     7962  MOL7962     0.2052
  36887  O         16.2720   19.3500  151.2000 O.3   7963  MOL7963    -0.4105
  36888  H         15.6380   19.6180  150.5030 H     7963  MOL7963     0.2052
  36889  H         16.6600   20.1710  151.6000 H     7963  MOL7963     0.2052
  36890  O         11.7470   39.6240  228.2580 O.3   7964  MOL7964    -0.4105
  36891  H         11.0960   40.3400  228.1020 H     7964  MOL7964     0.2052
  36892  H         11.4880   39.1450  229.0880 H     7964  MOL7964     0.2052
  36893  O         28.3260  196.2390  186.8490 O.3   7965  MOL7965    -0.4105
  36894  H         27.6180  196.5360  186.2400 H     7965  MOL7965     0.2052
  36895  H         29.1890  196.2670  186.3590 H     7965  MOL7965     0.2052
  36896  O        175.4130    1.3530    1.8890 O.3   7966  MOL7966    -0.4105
  36897  H        175.8650    0.6070    1.4430 H     7966  MOL7966     0.2052
  36898  H        175.4510    2.1430    1.2890 H     7966  MOL7966     0.2052
  36899  O        159.1690  182.3610  159.1330 O.3   7967  MOL7967    -0.4105
  36900  H        160.0030  182.6780  158.7270 H     7967  MOL7967     0.2052
  36901  H        158.5350  183.1230  159.1750 H     7967  MOL7967     0.2052
  36902  O         69.6500  161.4820  213.2590 O.3   7968  MOL7968    -0.4105
  36903  H         70.5640  161.4740  212.9050 H     7968  MOL7968     0.2052
  36904  H         69.0950  160.8790  212.6980 H     7968  MOL7968     0.2052
  36905  O         80.3090  189.4230   47.7810 O.3   7969  MOL7969    -0.4105
  36906  H         80.1500  188.4560   47.7690 H     7969  MOL7969     0.2052
  36907  H         79.4990  189.8660   48.1440 H     7969  MOL7969     0.2052
  36908  O         94.9150   26.0400  202.7860 O.3   7970  MOL7970    -0.4105
  36909  H         94.3770   26.2710  203.5720 H     7970  MOL7970     0.2052
  36910  H         94.6200   25.1510  202.4590 H     7970  MOL7970     0.2052
  36911  O        108.4830  168.6840   61.1500 O.3   7971  MOL7971    -0.4105
  36912  H        108.2640  168.3920   60.2410 H     7971  MOL7971     0.2052
  36913  H        108.1330  168.0070   61.7860 H     7971  MOL7971     0.2052
  36914  O         97.1550   72.0120  185.9010 O.3   7972  MOL7972    -0.4105
  36915  H         97.6420   72.7640  185.5040 H     7972  MOL7972     0.2052
  36916  H         97.4910   71.1730  185.4910 H     7972  MOL7972     0.2052
  36917  O        160.6810    5.8070  242.7150 O.3   7973  MOL7973    -0.4105
  36918  H        161.4180    6.4520  242.7260 H     7973  MOL7973     0.2052
  36919  H        159.9070    6.2280  242.2600 H     7973  MOL7973     0.2052
  36920  O         55.5240   60.3410   38.9570 O.3   7974  MOL7974    -0.4105
  36921  H         54.5550   60.4860   38.9360 H     7974  MOL7974     0.2052
  36922  H         55.8140   60.0490   38.0550 H     7974  MOL7974     0.2052
  36923  O         97.2930   62.0110  253.2060 O.3   7975  MOL7975    -0.4105
  36924  H         96.4160   62.4430  253.2730 H     7975  MOL7975     0.2052
  36925  H         97.3230   61.2670  253.8620 H     7975  MOL7975     0.2052
  36926  O        108.4240   24.5890  252.9490 O.3   7976  MOL7976    -0.4105
  36927  H        108.0410   24.9620  253.7700 H     7976  MOL7976     0.2052
  36928  H        108.0830   23.6630  252.8400 H     7976  MOL7976     0.2052
  36929  O        185.4810  145.4440  175.1630 O.3   7977  MOL7977    -0.4105
  36930  H        186.2550  146.0060  174.9500 H     7977  MOL7977     0.2052
  36931  H        185.3230  145.4910  176.1410 H     7977  MOL7977     0.2052
  36932  O         82.1420  153.9760  258.6500 O.3   7978  MOL7978    -0.4105
  36933  H         81.9230  153.4390  259.4400 H     7978  MOL7978     0.2052
  36934  H         81.4150  154.6360  258.5120 H     7978  MOL7978     0.2052
  36935  O        156.9080  150.2920  116.0520 O.3   7979  MOL7979    -0.4105
  36936  H        156.4050  150.8360  116.6940 H     7979  MOL7979     0.2052
  36937  H        156.5000  150.4120  115.1560 H     7979  MOL7979     0.2052
  36938  O         13.3300  153.9350  260.1460 O.3   7980  MOL7980    -0.4105
  36939  H         12.4040  154.1970  260.3320 H     7980  MOL7980     0.2052
  36940  H         13.3530  152.9520  260.0140 H     7980  MOL7980     0.2052
  36941  O         17.9470   99.1880   32.0870 O.3   7981  MOL7981    -0.4105
  36942  H         18.1610  100.1260   32.2720 H     7981  MOL7981     0.2052
  36943  H         17.1470   99.1610   31.5010 H     7981  MOL7981     0.2052
  36944  O         11.6570  172.3740   73.2940 O.3   7982  MOL7982    -0.4105
  36945  H         12.2790  171.6240   73.4060 H     7982  MOL7982     0.2052
  36946  H         10.7320  172.0160   73.3160 H     7982  MOL7982     0.2052
  36947  O        184.6260   72.4900  199.8030 O.3   7983  MOL7983    -0.4105
  36948  H        183.7230   72.5240  200.1820 H     7983  MOL7983     0.2052
  36949  H        184.6100   72.9410  198.9190 H     7983  MOL7983     0.2052
  36950  O        126.7160  153.6300  232.8080 O.3   7984  MOL7984    -0.4105
  36951  H        126.8260  153.9180  233.7380 H     7984  MOL7984     0.2052
  36952  H        126.0160  154.1950  232.3890 H     7984  MOL7984     0.2052
  36953  O          7.0000  157.0750  297.9820 O.3   7985  MOL7985    -0.4105
  36954  H          7.3930  157.7400  297.3790 H     7985  MOL7985     0.2052
  36955  H          6.1110  156.8180  297.6240 H     7985  MOL7985     0.2052
  36956  O         49.2520  171.0630  146.4770 O.3   7986  MOL7986    -0.4105
  36957  H         48.8840  171.5670  147.2330 H     7986  MOL7986     0.2052
  36958  H         50.1440  171.4380  146.2590 H     7986  MOL7986     0.2052
  36959  O        163.2220  101.2040  156.4950 O.3   7987  MOL7987    -0.4105
  36960  H        163.9490  100.9610  157.1060 H     7987  MOL7987     0.2052
  36961  H        162.5860  100.4440  156.4520 H     7987  MOL7987     0.2052
  36962  O        180.6570  146.2290  164.9780 O.3   7988  MOL7988    -0.4105
  36963  H        180.6220  145.2680  165.1710 H     7988  MOL7988     0.2052
  36964  H        179.9700  146.4320  164.2910 H     7988  MOL7988     0.2052
  36965  O        143.7300   99.4280    1.0450 O.3   7989  MOL7989    -0.4105
  36966  H        143.8600   98.4930    1.3080 H     7989  MOL7989     0.2052
  36967  H        143.5150   99.9530    1.8590 H     7989  MOL7989     0.2052
  36968  O        155.8400  161.9040   20.3610 O.3   7990  MOL7990    -0.4105
  36969  H        155.7280  161.0120   20.7500 H     7990  MOL7990     0.2052
  36970  H        155.1450  162.4990   20.7450 H     7990  MOL7990     0.2052
  36971  O        135.1120   22.6340  221.1810 O.3   7991  MOL7991    -0.4105
  36972  H        134.2390   23.0630  221.3040 H     7991  MOL7991     0.2052
  36973  H        135.8070   23.2320  221.5610 H     7991  MOL7991     0.2052
  36974  O         31.3360  162.7750  239.9850 O.3   7992  MOL7992    -0.4105
  36975  H         31.5330  163.7330  240.0340 H     7992  MOL7992     0.2052
  36976  H         32.1900  162.2880  239.8530 H     7992  MOL7992     0.2052
  36977  O        122.3840   96.1440  240.9280 O.3   7993  MOL7993    -0.4105
  36978  H        121.4050   96.1380  240.8810 H     7993  MOL7993     0.2052
  36979  H        122.7080   95.2160  240.7920 H     7993  MOL7993     0.2052
  36980  O         95.5350  101.6800  281.7940 O.3   7994  MOL7994    -0.4105
  36981  H         94.8210  102.3510  281.8080 H     7994  MOL7994     0.2052
  36982  H         95.1160  100.7800  281.8080 H     7994  MOL7994     0.2052
  36983  O        123.4940  178.9110  236.8990 O.3   7995  MOL7995    -0.4105
  36984  H        124.2700  179.4860  237.0680 H     7995  MOL7995     0.2052
  36985  H        123.7320  177.9840  237.1610 H     7995  MOL7995     0.2052
  36986  O         77.5430   28.3790  199.3980 O.3   7996  MOL7996    -0.4105
  36987  H         77.3050   28.6730  198.4940 H     7996  MOL7996     0.2052
  36988  H         77.9420   27.4730  199.3350 H     7996  MOL7996     0.2052
  36989  O        114.8280  188.1650  237.1420 O.3   7997  MOL7997    -0.4105
  36990  H        115.0730  189.0190  237.5570 H     7997  MOL7997     0.2052
  36991  H        114.4730  187.5670  237.8500 H     7997  MOL7997     0.2052
  36992  O        133.0270   82.5030  295.0680 O.3   7998  MOL7998    -0.4105
  36993  H        133.9840   82.2990  295.1330 H     7998  MOL7998     0.2052
  36994  H        132.9290   83.4050  294.6660 H     7998  MOL7998     0.2052
  36995  O          7.9480   19.5790  168.7250 O.3   7999  MOL7999    -0.4105
  36996  H          7.5440   20.3960  168.3650 H     7999  MOL7999     0.2052
  36997  H          8.8720   19.5060  168.3690 H     7999  MOL7999     0.2052
  36998  O        180.0320  108.0520  144.5500 O.3   8000  MOL8000    -0.4105
  36999  H        179.1180  108.4040  144.5130 H     8000  MOL8000     0.2052
  37000  H        180.6610  108.8190  144.5260 H     8000  MOL8000     0.2052
  37001  O         29.3640   80.0100   61.6960 O.3   8001  MOL8001    -0.4105
  37002  H         30.3300   80.1520   61.7810 H     8001  MOL8001     0.2052
  37003  H         28.9030   80.8480   61.9630 H     8001  MOL8001     0.2052
  37004  O        167.9840  188.7490  128.5940 O.3   8002  MOL8002    -0.4105
  37005  H        167.6540  189.5960  128.2280 H     8002  MOL8002     0.2052
  37006  H        167.2130  188.2560  128.9780 H     8002  MOL8002     0.2052
  37007  O         58.0700  147.0950  292.3610 O.3   8003  MOL8003    -0.4105
  37008  H         57.8150  147.9910  292.6650 H     8003  MOL8003     0.2052
  37009  H         57.3180  146.7210  291.8320 H     8003  MOL8003     0.2052
  37010  O        133.0770   52.7410  219.8870 O.3   8004  MOL8004    -0.4105
  37011  H        132.3290   52.4080  219.3480 H     8004  MOL8004     0.2052
  37012  H        132.9460   53.7140  220.0310 H     8004  MOL8004     0.2052
  37013  O        168.1330  142.6890  185.5640 O.3   8005  MOL8005    -0.4105
  37014  H        169.1010  142.7370  185.4190 H     8005  MOL8005     0.2052
  37015  H        167.8920  143.3410  186.2720 H     8005  MOL8005     0.2052
  37016  O        153.0550   14.8440  114.6560 O.3   8006  MOL8006    -0.4105
  37017  H        152.1310   14.9990  114.3680 H     8006  MOL8006     0.2052
  37018  H        153.6120   15.5970  114.3300 H     8006  MOL8006     0.2052
  37019  O         57.2550  135.4030  171.5870 O.3   8007  MOL8007    -0.4105
  37020  H         56.7080  134.6980  171.1810 H     8007  MOL8007     0.2052
  37021  H         57.6730  135.9310  170.8580 H     8007  MOL8007     0.2052
  37022  O         59.6050   41.4130  141.9040 O.3   8008  MOL8008    -0.4105
  37023  H         58.8500   40.8060  141.7540 H     8008  MOL8008     0.2052
  37024  H         60.3310   41.1680  141.2740 H     8008  MOL8008     0.2052
  37025  O         87.8450   19.1090  164.3700 O.3   8009  MOL8009    -0.4105
  37026  H         87.1960   19.8290  164.5150 H     8009  MOL8009     0.2052
  37027  H         87.3480   18.2540  164.2930 H     8009  MOL8009     0.2052
  37028  O        155.9020   79.7890  162.1890 O.3   8010  MOL8010    -0.4105
  37029  H        155.7060   80.7000  162.4940 H     8010  MOL8010     0.2052
  37030  H        156.8640   79.6070  162.3550 H     8010  MOL8010     0.2052
  37031  O         66.6630   59.2180   10.1070 O.3   8011  MOL8011    -0.4105
  37032  H         66.8970   59.1820   11.0580 H     8011  MOL8011     0.2052
  37033  H         67.5010   59.1590    9.5790 H     8011  MOL8011     0.2052
  37034  O        128.6790    0.8950  195.3490 O.3   8012  MOL8012    -0.4105
  37035  H        129.0950    0.0080  195.3370 H     8012  MOL8012     0.2052
  37036  H        129.3990    1.5760  195.2890 H     8012  MOL8012     0.2052
  37037  O        113.6920  153.6390   71.2060 O.3   8013  MOL8013    -0.4105
  37038  H        113.3900  154.3220   70.5710 H     8013  MOL8013     0.2052
  37039  H        114.6680  153.5090   71.0820 H     8013  MOL8013     0.2052
  37040  O        173.7400  120.0810  149.2530 O.3   8014  MOL8014    -0.4105
  37041  H        174.7110  120.2100  149.2300 H     8014  MOL8014     0.2052
  37042  H        173.3140  120.8460  148.7840 H     8014  MOL8014     0.2052
  37043  O         29.6830   64.8310   95.9740 O.3   8015  MOL8015    -0.4105
  37044  H         28.7600   64.8180   95.6430 H     8015  MOL8015     0.2052
  37045  H         29.8300   65.6890   96.4490 H     8015  MOL8015     0.2052
  37046  O        192.1250   12.1310  171.8030 O.3   8016  MOL8016    -0.4105
  37047  H        191.1480   12.1920  171.7440 H     8016  MOL8016     0.2052
  37048  H        192.3560   11.2780  172.2530 H     8016  MOL8016     0.2052
  37049  O        172.6940  155.9460  228.6950 O.3   8017  MOL8017    -0.4105
  37050  H        173.6610  155.9500  228.5370 H     8017  MOL8017     0.2052
  37051  H        172.4280  156.8470  229.0150 H     8017  MOL8017     0.2052
  37052  O        111.2760    4.5110  295.2240 O.3   8018  MOL8018    -0.4105
  37053  H        111.2600    5.0000  296.0740 H     8018  MOL8018     0.2052
  37054  H        110.3430    4.4210  294.9000 H     8018  MOL8018     0.2052
  37055  O         67.1760   84.7960   31.9760 O.3   8019  MOL8019    -0.4105
  37056  H         66.8170   85.6970   31.8360 H     8019  MOL8019     0.2052
  37057  H         67.7400   84.8100   32.7920 H     8019  MOL8019     0.2052
  37058  O        196.9910  169.7120  126.7800 O.3   8020  MOL8020    -0.4105
  37059  H        196.2450  169.8960  126.1720 H     8020  MOL8020     0.2052
  37060  H        196.7110  169.9600  127.6990 H     8020  MOL8020     0.2052
  37061  O        132.5090  190.7680   58.4950 O.3   8021  MOL8021    -0.4105
  37062  H        132.6870  191.5150   59.1040 H     8021  MOL8021     0.2052
  37063  H        131.6410  190.9350   58.0450 H     8021  MOL8021     0.2052
  37064  O          3.4050  184.5330  258.5320 O.3   8022  MOL8022    -0.4105
  37065  H          3.4850  183.6040  258.2300 H     8022  MOL8022     0.2052
  37066  H          4.2730  184.9870  258.3720 H     8022  MOL8022     0.2052
  37067  O         73.0300  162.0150   56.5080 O.3   8023  MOL8023    -0.4105
  37068  H         73.6590  162.7260   56.7530 H     8023  MOL8023     0.2052
  37069  H         72.1300  162.4200   56.4050 H     8023  MOL8023     0.2052
  37070  O        130.5400  137.2230  211.0060 O.3   8024  MOL8024    -0.4105
  37071  H        131.0430  137.9350  210.5570 H     8024  MOL8024     0.2052
  37072  H        131.0630  136.3830  210.9370 H     8024  MOL8024     0.2052
  37073  O        176.4450   22.6460  226.9800 O.3   8025  MOL8025    -0.4105
  37074  H        176.0940   21.7470  227.1520 H     8025  MOL8025     0.2052
  37075  H        175.7140   23.2990  227.1350 H     8025  MOL8025     0.2052
  37076  O        105.0050   10.2340  295.4830 O.3   8026  MOL8026    -0.4105
  37077  H        105.7340   10.0750  296.1180 H     8026  MOL8026     0.2052
  37078  H        104.9180   11.2140  295.3500 H     8026  MOL8026     0.2052
  37079  O        185.8820  108.0030  187.2790 O.3   8027  MOL8027    -0.4105
  37080  H        185.2290  107.5220  186.7290 H     8027  MOL8027     0.2052
  37081  H        185.6610  107.8460  188.2330 H     8027  MOL8027     0.2052
  37082  O        174.2700   52.1840  269.0530 O.3   8028  MOL8028    -0.4105
  37083  H        174.0340   52.9680  269.5910 H     8028  MOL8028     0.2052
  37084  H        173.6630   52.1510  268.2680 H     8028  MOL8028     0.2052
  37085  O         49.1480  196.4680    5.3140 O.3   8029  MOL8029    -0.4105
  37086  H         49.4320  195.5790    5.0160 H     8029  MOL8029     0.2052
  37087  H         49.9540  196.9740    5.5930 H     8029  MOL8029     0.2052
  37088  O          4.1860    2.4800   64.5400 O.3   8030  MOL8030    -0.4105
  37089  H          5.0810    2.1920   64.2650 H     8030  MOL8030     0.2052
  37090  H          3.7290    1.7090   64.9660 H     8030  MOL8030     0.2052
  37091  O        135.9240   48.0580  283.6290 O.3   8031  MOL8031    -0.4105
  37092  H        135.7310   49.0160  283.7050 H     8031  MOL8031     0.2052
  37093  H        136.6760   47.9420  282.9920 H     8031  MOL8031     0.2052
  37094  O         15.5570   39.3800  225.7870 O.3   8032  MOL8032    -0.4105
  37095  H         15.9550   40.2760  225.7870 H     8032  MOL8032     0.2052
  37096  H         16.2910   38.7130  225.7870 H     8032  MOL8032     0.2052
  37097  O        178.0000   77.8830   91.8030 O.3   8033  MOL8033    -0.4105
  37098  H        178.9800   77.8510   91.8330 H     8033  MOL8033     0.2052
  37099  H        177.7150   78.8150   91.9930 H     8033  MOL8033     0.2052
  37100  O          6.1220  114.3770  253.2000 O.3   8034  MOL8034    -0.4105
  37101  H          6.2530  114.6300  252.2620 H     8034  MOL8034     0.2052
  37102  H          5.3560  114.8970  253.5570 H     8034  MOL8034     0.2052
  37103  O        142.2760  192.6930  106.3950 O.3   8035  MOL8035    -0.4105
  37104  H        141.5370  192.3120  105.8770 H     8035  MOL8035     0.2052
  37105  H        142.0070  192.7140  107.3500 H     8035  MOL8035     0.2052
  37106  O        140.5790  169.3190  143.4720 O.3   8036  MOL8036    -0.4105
  37107  H        139.7470  168.8150  143.3490 H     8036  MOL8036     0.2052
  37108  H        140.4170  170.0250  144.1490 H     8036  MOL8036     0.2052
  37109  O        135.5530  178.6460   86.8650 O.3   8037  MOL8037    -0.4105
  37110  H        136.3150  178.1020   87.1520 H     8037  MOL8037     0.2052
  37111  H        135.1790  179.1020   87.6630 H     8037  MOL8037     0.2052
  37112  O        108.0260   80.4460  207.2210 O.3   8038  MOL8038    -0.4105
  37113  H        107.0980   80.1330  207.2550 H     8038  MOL8038     0.2052
  37114  H        108.0190   81.4110  206.9880 H     8038  MOL8038     0.2052
  37115  O         77.2570   69.9690  220.1070 O.3   8039  MOL8039    -0.4105
  37116  H         76.3380   70.3070  220.1370 H     8039  MOL8039     0.2052
  37117  H         77.2680   69.1450  219.5540 H     8039  MOL8039     0.2052
  37118  O         49.2650  186.5130  204.8920 O.3   8040  MOL8040    -0.4105
  37119  H         49.9460  186.6570  205.5810 H     8040  MOL8040     0.2052
  37120  H         48.4200  186.9340  205.1970 H     8040  MOL8040     0.2052
  37121  O         30.2380  152.1590   80.1520 O.3   8041  MOL8041    -0.4105
  37122  H         30.4060  152.9560   79.6060 H     8041  MOL8041     0.2052
  37123  H         30.6180  151.3740   79.6800 H     8041  MOL8041     0.2052
  37124  O          2.9320   21.0440  230.8880 O.3   8042  MOL8042    -0.4105
  37125  H          3.0190   20.1950  230.4060 H     8042  MOL8042     0.2052
  37126  H          1.9810   21.1540  231.1520 H     8042  MOL8042     0.2052
  37127  O          9.9090  187.3140   93.9730 O.3   8043  MOL8043    -0.4105
  37128  H          9.0550  187.7960   93.9670 H     8043  MOL8043     0.2052
  37129  H          9.7180  186.3450   94.0640 H     8043  MOL8043     0.2052
  37130  O         52.5420  180.8470   80.2260 O.3   8044  MOL8044    -0.4105
  37131  H         51.8920  181.4470   80.6470 H     8044  MOL8044     0.2052
  37132  H         53.0860  180.4270   80.9420 H     8044  MOL8044     0.2052
  37133  O        144.3900   23.5730  148.3920 O.3   8045  MOL8045    -0.4105
  37134  H        144.7680   24.4750  148.4580 H     8045  MOL8045     0.2052
  37135  H        145.1380   22.9210  148.4100 H     8045  MOL8045     0.2052
  37136  O        104.8770  143.1250  193.0460 O.3   8046  MOL8046    -0.4105
  37137  H        105.5100  142.7260  192.4140 H     8046  MOL8046     0.2052
  37138  H        105.3310  143.8770  193.5080 H     8046  MOL8046     0.2052
  37139  O        157.9410   48.2940   69.4410 O.3   8047  MOL8047    -0.4105
  37140  H        158.3600   47.8070   68.7010 H     8047  MOL8047     0.2052
  37141  H        157.1220   47.8040   69.7110 H     8047  MOL8047     0.2052
  37142  O         16.6610   93.7470   65.7130 O.3   8048  MOL8048    -0.4105
  37143  H         16.7680   93.1040   64.9800 H     8048  MOL8048     0.2052
  37144  H         17.4320   93.6470   66.3280 H     8048  MOL8048     0.2052
  37145  O        117.3860   46.8550   34.3700 O.3   8049  MOL8049    -0.4105
  37146  H        118.2040   46.3730   34.6120 H     8049  MOL8049     0.2052
  37147  H        117.4480   47.7750   34.7370 H     8049  MOL8049     0.2052
  37148  O        192.7380   21.8850  127.4390 O.3   8050  MOL8050    -0.4105
  37149  H        193.2690   21.7810  128.2560 H     8050  MOL8050     0.2052
  37150  H        192.5870   22.8540  127.2870 H     8050  MOL8050     0.2052
  37151  O         81.8260   40.2210  178.8850 O.3   8051  MOL8051    -0.4105
  37152  H         81.1510   39.8260  179.4770 H     8051  MOL8051     0.2052
  37153  H         82.6900   40.2450  179.3720 H     8051  MOL8051     0.2052
  37154  O        172.7050  147.8200  132.8090 O.3   8052  MOL8052    -0.4105
  37155  H        171.9500  148.4240  132.6490 H     8052  MOL8052     0.2052
  37156  H        173.1330  148.0770  133.6670 H     8052  MOL8052     0.2052
  37157  O         21.2820   67.9260   61.6820 O.3   8053  MOL8053    -0.4105
  37158  H         21.3850   67.1000   61.1650 H     8053  MOL8053     0.2052
  37159  H         20.7440   67.7210   62.4910 H     8053  MOL8053     0.2052
  37160  O         45.7950  127.8120  104.1630 O.3   8054  MOL8054    -0.4105
  37161  H         45.5800  128.4690  104.8580 H     8054  MOL8054     0.2052
  37162  H         45.5880  126.9080  104.5160 H     8054  MOL8054     0.2052
  37163  O        157.4990   27.3720  282.2160 O.3   8055  MOL8055    -0.4105
  37164  H        156.6310   27.3240  282.6690 H     8055  MOL8055     0.2052
  37165  H        157.6230   28.2970  281.8800 H     8055  MOL8055     0.2052
  37166  O        141.1150   77.1810   40.1230 O.3   8056  MOL8056    -0.4105
  37167  H        141.0090   78.1420   40.2810 H     8056  MOL8056     0.2052
  37168  H        142.0850   76.9810   40.0620 H     8056  MOL8056     0.2052
  37169  O        164.0120  162.2860  130.2700 O.3   8057  MOL8057    -0.4105
  37170  H        163.8070  162.0270  131.1920 H     8057  MOL8057     0.2052
  37171  H        163.7000  163.2170  130.1310 H     8057  MOL8057     0.2052
  37172  O        107.5390    3.4380   12.4980 O.3   8058  MOL8058    -0.4105
  37173  H        108.1990    3.8470   13.0960 H     8058  MOL8058     0.2052
  37174  H        106.9160    4.1470   12.1910 H     8058  MOL8058     0.2052
  37175  O         17.3450   41.8720   64.9980 O.3   8059  MOL8059    -0.4105
  37176  H         17.9220   42.2000   64.2770 H     8059  MOL8059     0.2052
  37177  H         17.4760   42.4560   65.7900 H     8059  MOL8059     0.2052
  37178  O        181.7760  146.5180  247.9130 O.3   8060  MOL8060    -0.4105
  37179  H        181.9330  145.6330  248.3040 H     8060  MOL8060     0.2052
  37180  H        182.3220  146.5940  247.0880 H     8060  MOL8060     0.2052
  37181  O        148.0490   87.8200   61.7190 O.3   8061  MOL8061    -0.4105
  37182  H        148.4810   86.9440   61.8050 H     8061  MOL8061     0.2052
  37183  H        147.0700   87.6770   61.6520 H     8061  MOL8061     0.2052
  37184  O        156.2810  167.0290   60.9220 O.3   8062  MOL8062    -0.4105
  37185  H        155.6470  166.5200   60.3740 H     8062  MOL8062     0.2052
  37186  H        156.6270  167.7820   60.3760 H     8062  MOL8062     0.2052
  37187  O        183.5800  113.7500  190.0300 O.3   8063  MOL8063    -0.4105
  37188  H        183.2800  114.4920  189.4650 H     8063  MOL8063     0.2052
  37189  H        183.4600  112.9060  189.5230 H     8063  MOL8063     0.2052
  37190  O         85.5420   24.0030  280.9340 O.3   8064  MOL8064    -0.4105
  37191  H         86.3680   24.4670  280.6820 H     8064  MOL8064     0.2052
  37192  H         85.6730   23.6030  281.8320 H     8064  MOL8064     0.2052
  37193  O        189.5610  148.2730   66.9990 O.3   8065  MOL8065    -0.4105
  37194  H        190.3590  148.1900   66.4360 H     8065  MOL8065     0.2052
  37195  H        189.1250  149.1400   66.7940 H     8065  MOL8065     0.2052
  37196  O        170.5640   11.1000  104.4910 O.3   8066  MOL8066    -0.4105
  37197  H        169.9160   10.9590  105.2110 H     8066  MOL8066     0.2052
  37198  H        170.1050   11.5690  103.7460 H     8066  MOL8066     0.2052
  37199  O         38.5810  162.8540  113.7340 O.3   8067  MOL8067    -0.4105
  37200  H         39.4360  162.5180  114.0740 H     8067  MOL8067     0.2052
  37201  H         37.9520  162.0890  113.6660 H     8067  MOL8067     0.2052
  37202  O        174.9880  133.9480   40.2370 O.3   8068  MOL8068    -0.4105
  37203  H        175.2610  133.0070   40.2450 H     8068  MOL8068     0.2052
  37204  H        175.7980  134.5080   40.3560 H     8068  MOL8068     0.2052
  37205  O         43.4120   14.1350   36.4650 O.3   8069  MOL8069    -0.4105
  37206  H         43.0250   13.3730   36.9450 H     8069  MOL8069     0.2052
  37207  H         42.6850   14.7850   36.2790 H     8069  MOL8069     0.2052
  37208  O         48.1540  187.5980  171.6830 O.3   8070  MOL8070    -0.4105
  37209  H         47.4560  188.2470  171.4540 H     8070  MOL8070     0.2052
  37210  H         47.7800  186.9600  172.3440 H     8070  MOL8070     0.2052
  37211  O        176.4540  198.9390  190.8950 O.3   8071  MOL8071    -0.4105
  37212  H        175.5010  198.7120  190.8610 H     8071  MOL8071     0.2052
  37213  H        176.5540  199.8960  190.6530 H     8071  MOL8071     0.2052
  37214  O         78.6020   41.0480  233.3350 O.3   8072  MOL8072    -0.4105
  37215  H         79.0880   40.9010  232.4970 H     8072  MOL8072     0.2052
  37216  H         79.1840   41.5720  233.9440 H     8072  MOL8072     0.2052
  37217  O        182.0250  155.8320   16.7410 O.3   8073  MOL8073    -0.4105
  37218  H        181.4340  155.0930   16.9970 H     8073  MOL8073     0.2052
  37219  H        181.5350  156.6830   16.8770 H     8073  MOL8073     0.2052
  37220  O        171.2160  195.9980  116.7070 O.3   8074  MOL8074    -0.4105
  37221  H        170.3990  196.0340  116.1670 H     8074  MOL8074     0.2052
  37222  H        171.1780  196.7280  117.3770 H     8074  MOL8074     0.2052
  37223  O        184.6270   66.4100  196.1950 O.3   8075  MOL8075    -0.4105
  37224  H        185.1690   65.6360  196.4570 H     8075  MOL8075     0.2052
  37225  H        183.7200   66.0860  195.9550 H     8075  MOL8075     0.2052
  37226  O         40.7450  130.2510  169.9440 O.3   8076  MOL8076    -0.4105
  37227  H         39.8730  130.0400  170.3370 H     8076  MOL8076     0.2052
  37228  H         41.0480  131.1220  170.3100 H     8076  MOL8076     0.2052
  37229  O        154.9510   15.7300  155.0320 O.3   8077  MOL8077    -0.4105
  37230  H        153.9960   15.5720  155.1840 H     8077  MOL8077     0.2052
  37231  H        155.1360   15.6070  154.0640 H     8077  MOL8077     0.2052
  37232  O        129.9120   90.2750   66.4700 O.3   8078  MOL8078    -0.4105
  37233  H        129.5070   91.0680   66.0600 H     8078  MOL8078     0.2052
  37234  H        129.1950   89.6070   66.6270 H     8078  MOL8078     0.2052
  37235  O         24.2980   97.6640    8.2330 O.3   8079  MOL8079    -0.4105
  37236  H         24.5810   97.3120    7.3630 H     8079  MOL8079     0.2052
  37237  H         24.1160   96.8960    8.8340 H     8079  MOL8079     0.2052
  37238  O        165.0590   84.0640   18.8870 O.3   8080  MOL8080    -0.4105
  37239  H        165.5410   84.8370   18.5270 H     8080  MOL8080     0.2052
  37240  H        165.0040   83.3740   18.1760 H     8080  MOL8080     0.2052
  37241  O        165.1520  127.0350  250.7930 O.3   8081  MOL8081    -0.4105
  37242  H        165.4260  127.9750  250.8400 H     8081  MOL8081     0.2052
  37243  H        165.7870  126.4990  251.3350 H     8081  MOL8081     0.2052
  37244  O         39.0340    9.9330  256.1800 O.3   8082  MOL8082    -0.4105
  37245  H         38.3020    9.3530  255.8820 H     8082  MOL8082     0.2052
  37246  H         38.7320   10.8750  256.1060 H     8082  MOL8082     0.2052
  37247  O         22.7560  165.2110   62.4580 O.3   8083  MOL8083    -0.4105
  37248  H         22.9150  165.7540   61.6580 H     8083  MOL8083     0.2052
  37249  H         22.0230  165.6320   62.9780 H     8083  MOL8083     0.2052
  37250  O        165.2960   88.6190  244.6870 O.3   8084  MOL8084    -0.4105
  37251  H        164.4630   88.3090  244.2740 H     8084  MOL8084     0.2052
  37252  H        165.2920   89.6110  244.6880 H     8084  MOL8084     0.2052
  37253  O         58.1220   58.7040   77.0990 O.3   8085  MOL8085    -0.4105
  37254  H         57.1610   58.5730   77.2380 H     8085  MOL8085     0.2052
  37255  H         58.5950   58.4390   77.9300 H     8085  MOL8085     0.2052
  37256  O        106.0290   86.7710  173.2310 O.3   8086  MOL8086    -0.4105
  37257  H        106.8180   87.0720  173.7280 H     8086  MOL8086     0.2052
  37258  H        105.2200   87.0610  173.7260 H     8086  MOL8086     0.2052
  37259  O        160.4840    9.4840  265.4990 O.3   8087  MOL8087    -0.4105
  37260  H        160.9500    8.6220  265.4960 H     8087  MOL8087     0.2052
  37261  H        159.5600    9.3360  265.8280 H     8087  MOL8087     0.2052
  37262  O        115.4620   81.9940  198.3510 O.3   8088  MOL8088    -0.4105
  37263  H        115.7550   81.1000  198.0760 H     8088  MOL8088     0.2052
  37264  H        116.2610   82.5080  198.6380 H     8088  MOL8088     0.2052
  37265  O        131.9730  130.1810  285.9080 O.3   8089  MOL8089    -0.4105
  37266  H        132.2140  130.4040  284.9850 H     8089  MOL8089     0.2052
  37267  H        130.9840  130.1390  285.9700 H     8089  MOL8089     0.2052
  37268  O         94.4000  151.0530  166.5270 O.3   8090  MOL8090    -0.4105
  37269  H         94.6150  150.0990  166.5960 H     8090  MOL8090     0.2052
  37270  H         93.4200  151.1420  166.4040 H     8090  MOL8090     0.2052
  37271  O        186.6520  148.2690  292.5440 O.3   8091  MOL8091    -0.4105
  37272  H        185.7670  148.5250  292.8800 H     8091  MOL8091     0.2052
  37273  H        187.2620  149.0440  292.6550 H     8091  MOL8091     0.2052
  37274  O        186.3630  154.7070  144.6220 O.3   8092  MOL8092    -0.4105
  37275  H        186.8880  154.5620  145.4370 H     8092  MOL8092     0.2052
  37276  H        185.5660  154.1160  144.6580 H     8092  MOL8092     0.2052
  37277  O        156.9390   96.0850  159.8880 O.3   8093  MOL8093    -0.4105
  37278  H        156.8900   95.1660  160.2240 H     8093  MOL8093     0.2052
  37279  H        156.5060   96.1130  158.9950 H     8093  MOL8093     0.2052
  37280  O          7.6090   39.0770  268.3230 O.3   8094  MOL8094    -0.4105
  37281  H          7.4910   38.2220  268.7870 H     8094  MOL8094     0.2052
  37282  H          8.3430   38.9740  267.6630 H     8094  MOL8094     0.2052
  37283  O         61.7980   48.5660  169.0480 O.3   8095  MOL8095    -0.4105
  37284  H         61.9290   48.6410  170.0170 H     8095  MOL8095     0.2052
  37285  H         61.2330   47.7690  168.8720 H     8095  MOL8095     0.2052
  37286  O         54.3260   26.2640  103.5200 O.3   8096  MOL8096    -0.4105
  37287  H         55.2590   26.5640  103.5110 H     8096  MOL8096     0.2052
  37288  H         54.3190   25.2720  103.5230 H     8096  MOL8096     0.2052
  37289  O         46.8020   18.5700  156.4010 O.3   8097  MOL8097    -0.4105
  37290  H         47.3980   17.8010  156.2830 H     8097  MOL8097     0.2052
  37291  H         46.2670   18.4250  157.2240 H     8097  MOL8097     0.2052
  37292  O        182.5070   41.0270  181.4770 O.3   8098  MOL8098    -0.4105
  37293  H        183.2970   41.5020  181.8080 H     8098  MOL8098     0.2052
  37294  H        182.8030   40.3680  180.7960 H     8098  MOL8098     0.2052
  37295  O         24.2570  122.6950  259.2280 O.3   8099  MOL8099    -0.4105
  37296  H         24.9960  122.8730  259.8470 H     8099  MOL8099     0.2052
  37297  H         24.4670  121.8670  258.7230 H     8099  MOL8099     0.2052
  37298  O         83.5410   24.3590  116.6420 O.3   8100  MOL8100    -0.4105
  37299  H         84.0970   24.0920  115.8820 H     8100  MOL8100     0.2052
  37300  H         82.6380   23.9660  116.5200 H     8100  MOL8100     0.2052
  37301  O        122.1380  119.6150  176.8770 O.3   8101  MOL8101    -0.4105
  37302  H        122.7630  120.1980  177.3580 H     8101  MOL8101     0.2052
  37303  H        121.2690  120.0870  176.8010 H     8101  MOL8101     0.2052
  37304  O          5.1550  118.5380  206.6900 O.3   8102  MOL8102    -0.4105
  37305  H          4.7400  119.2030  206.1010 H     8102  MOL8102     0.2052
  37306  H          6.1400  118.6260  206.6130 H     8102  MOL8102     0.2052
  37307  O        195.7770  165.3220   67.9290 O.3   8103  MOL8103    -0.4105
  37308  H        194.7980  165.2820   67.9480 H     8103  MOL8103     0.2052
  37309  H        196.1150  164.4730   67.5430 H     8103  MOL8103     0.2052
  37310  O         66.7990  165.6880  282.8250 O.3   8104  MOL8104    -0.4105
  37311  H         66.5970  166.6220  283.0390 H     8104  MOL8104     0.2052
  37312  H         66.3410  165.4570  281.9760 H     8104  MOL8104     0.2052
  37313  O        179.3410   45.7790  192.0240 O.3   8105  MOL8105    -0.4105
  37314  H        178.8630   46.5840  192.3150 H     8105  MOL8105     0.2052
  37315  H        180.3120   45.9840  192.0080 H     8105  MOL8105     0.2052
  37316  O        152.8240   71.2800    2.3620 O.3   8106  MOL8106    -0.4105
  37317  H        153.0950   71.9950    1.7470 H     8106  MOL8106     0.2052
  37318  H        152.0430   71.6000    2.8840 H     8106  MOL8106     0.2052
  37319  O        107.1740   67.9270   77.6050 O.3   8107  MOL8107    -0.4105
  37320  H        108.1000   68.0670   77.8970 H     8107  MOL8107     0.2052
  37321  H        106.9270   66.9860   77.8000 H     8107  MOL8107     0.2052
  37322  O        170.4250   42.3590  258.9040 O.3   8108  MOL8108    -0.4105
  37323  H        170.0060   43.1340  258.4740 H     8108  MOL8108     0.2052
  37324  H        170.9920   41.9000  258.2310 H     8108  MOL8108     0.2052
  37325  O        156.8400   11.4480  299.5270 O.3   8109  MOL8109    -0.4105
  37326  H        156.9880   12.1860  298.8990 H     8109  MOL8109     0.2052
  37327  H        155.8670   11.3880  299.7120 H     8109  MOL8109     0.2052
  37328  O          9.2930   68.6990  176.9700 O.3   8110  MOL8110    -0.4105
  37329  H          8.8530   67.8250  176.9060 H     8110  MOL8110     0.2052
  37330  H          9.9730   68.7580  176.2500 H     8110  MOL8110     0.2052
  37331  O        193.1550  191.6420  106.8390 O.3   8111  MOL8111    -0.4105
  37332  H        194.0870  191.6830  106.5410 H     8111  MOL8111     0.2052
  37333  H        193.0410  190.8280  107.3950 H     8111  MOL8111     0.2052
  37334  O         97.8620  116.7680  198.4140 O.3   8112  MOL8112    -0.4105
  37335  H         97.7990  116.3530  197.5280 H     8112  MOL8112     0.2052
  37336  H         98.0280  116.0520  199.0800 H     8112  MOL8112     0.2052
  37337  O        155.0150   59.9400   96.7240 O.3   8113  MOL8113    -0.4105
  37338  H        154.8680   60.8580   97.0370 H     8113  MOL8113     0.2052
  37339  H        154.1350   59.5490   96.4870 H     8113  MOL8113     0.2052
  37340  O        162.7860  146.9470    6.7490 O.3   8114  MOL8114    -0.4105
  37341  H        162.5210  146.9410    5.8050 H     8114  MOL8114     0.2052
  37342  H        162.5750  147.8410    7.1250 H     8114  MOL8114     0.2052
  37343  O         26.2070  165.4190  138.5390 O.3   8115  MOL8115    -0.4105
  37344  H         26.3480  166.3810  138.6620 H     8115  MOL8115     0.2052
  37345  H         25.3660  165.2910  138.0290 H     8115  MOL8115     0.2052
  37346  O        132.9910  170.0960  231.5010 O.3   8116  MOL8116    -0.4105
  37347  H        132.7820  170.9980  231.8230 H     8116  MOL8116     0.2052
  37348  H        132.1410  169.5910  231.4200 H     8116  MOL8116     0.2052
  37349  O        124.3090    0.8010  130.8970 O.3   8117  MOL8117    -0.4105
  37350  H        123.5310    0.6060  131.4600 H     8117  MOL8117     0.2052
  37351  H        124.3830    1.7860  130.8010 H     8117  MOL8117     0.2052
  37352  O          4.0510  172.0840  257.7360 O.3   8118  MOL8118    -0.4105
  37353  H          3.0810  172.1420  257.8590 H     8118  MOL8118     0.2052
  37354  H          4.4780  172.7830  258.2960 H     8118  MOL8118     0.2052
  37355  O         33.6790   30.4890   78.5450 O.3   8119  MOL8119    -0.4105
  37356  H         33.3910   29.5790   78.3260 H     8119  MOL8119     0.2052
  37357  H         34.6130   30.6040   78.2300 H     8119  MOL8119     0.2052
  37358  O        189.3420   28.5650   37.4430 O.3   8120  MOL8120    -0.4105
  37359  H        188.5950   29.1410   37.1770 H     8120  MOL8120     0.2052
  37360  H        189.5000   27.9070   36.7170 H     8120  MOL8120     0.2052
  37361  O         91.0670  117.6620  176.8100 O.3   8121  MOL8121    -0.4105
  37362  H         91.4410  116.8690  177.2480 H     8121  MOL8121     0.2052
  37363  H         91.8180  118.2590  176.5560 H     8121  MOL8121     0.2052
  37364  O         26.0410   90.3570  123.0540 O.3   8122  MOL8122    -0.4105
  37365  H         25.8830   91.3170  123.1750 H     8122  MOL8122     0.2052
  37366  H         25.1620   89.9070  122.9610 H     8122  MOL8122     0.2052
  37367  O         11.6570   83.8610  275.2870 O.3   8123  MOL8123    -0.4105
  37368  H         11.8590   83.5030  276.1770 H     8123  MOL8123     0.2052
  37369  H         12.1770   84.6970  275.1640 H     8123  MOL8123     0.2052
  37370  O         87.3290  151.5790  234.8920 O.3   8124  MOL8124    -0.4105
  37371  H         88.0450  151.8150  235.5180 H     8124  MOL8124     0.2052
  37372  H         87.7330  151.0940  234.1260 H     8124  MOL8124     0.2052
  37373  O         18.8480   51.5270  112.2530 O.3   8125  MOL8125    -0.4105
  37374  H         19.2550   52.4070  112.3960 H     8125  MOL8125     0.2052
  37375  H         18.8850   51.3210  111.2830 H     8125  MOL8125     0.2052
  37376  O        108.0460   58.1920  253.0590 O.3   8126  MOL8126    -0.4105
  37377  H        108.9140   57.8930  253.4010 H     8126  MOL8126     0.2052
  37378  H        107.3590   58.0080  253.7520 H     8126  MOL8126     0.2052
  37379  O         41.7390  164.5320   73.8130 O.3   8127  MOL8127    -0.4105
  37380  H         41.9450  163.5750   73.7730 H     8127  MOL8127     0.2052
  37381  H         42.5900  165.0290   73.9320 H     8127  MOL8127     0.2052
  37382  O        117.1690   83.2890   51.6660 O.3   8128  MOL8128    -0.4105
  37383  H        117.0220   82.3590   51.9390 H     8128  MOL8128     0.2052
  37384  H        118.0400   83.3400   51.1950 H     8128  MOL8128     0.2052
  37385  O        144.9540   21.3130  233.2590 O.3   8129  MOL8129    -0.4105
  37386  H        144.0120   21.0490  233.1980 H     8129  MOL8129     0.2052
  37387  H        145.5000   20.4910  233.3640 H     8129  MOL8129     0.2052
  37388  O         33.7460  197.8380   91.5150 O.3   8130  MOL8130    -0.4105
  37389  H         34.4750  197.3320   91.9310 H     8130  MOL8130     0.2052
  37390  H         33.9110  198.8040   91.6700 H     8130  MOL8130     0.2052
  37391  O        155.1500  112.3760  289.2870 O.3   8131  MOL8131    -0.4105
  37392  H        155.7860  112.1060  289.9820 H     8131  MOL8131     0.2052
  37393  H        155.5150  113.1750  288.8250 H     8131  MOL8131     0.2052
  37394  O         29.7640   60.3660   82.7510 O.3   8132  MOL8132    -0.4105
  37395  H         30.2970   59.7150   82.2480 H     8132  MOL8132     0.2052
  37396  H         29.4500   61.0650   82.1200 H     8132  MOL8132     0.2052
  37397  O         41.7350   21.8420  114.8800 O.3   8133  MOL8133    -0.4105
  37398  H         42.3330   21.5210  114.1720 H     8133  MOL8133     0.2052
  37399  H         40.9530   21.2330  114.9240 H     8133  MOL8133     0.2052
  37400  O        132.5760  198.3290  224.3950 O.3   8134  MOL8134    -0.4105
  37401  H        132.4560  198.7780  223.5330 H     8134  MOL8134     0.2052
  37402  H        133.2660  197.6250  224.2850 H     8134  MOL8134     0.2052
  37403  O         47.0830  194.9980   50.9190 O.3   8135  MOL8135    -0.4105
  37404  H         47.2580  194.0340   50.9430 H     8135  MOL8135     0.2052
  37405  H         47.9530  195.4720   50.9770 H     8135  MOL8135     0.2052
  37406  O         84.5290  144.1380   48.6160 O.3   8136  MOL8136    -0.4105
  37407  H         85.0920  144.4650   47.8840 H     8136  MOL8136     0.2052
  37408  H         83.7510  144.7480   48.7060 H     8136  MOL8136     0.2052
  37409  O         22.0070  185.0970  299.2940 O.3   8137  MOL8137    -0.4105
  37410  H         22.2170  184.2900  298.7780 H     8137  MOL8137     0.2052
  37411  H         21.0790  185.3710  299.0770 H     8137  MOL8137     0.2052
  37412  O        169.2680  173.3050   47.8800 O.3   8138  MOL8138    -0.4105
  37413  H        170.1810  173.4170   48.2180 H     8138  MOL8138     0.2052
  37414  H        169.2320  172.4630   47.3570 H     8138  MOL8138     0.2052
  37415  O        185.4870  168.5010  197.8440 O.3   8139  MOL8139    -0.4105
  37416  H        184.5660  168.8090  197.9770 H     8139  MOL8139     0.2052
  37417  H        185.6440  167.7250  198.4420 H     8139  MOL8139     0.2052
  37418  O        152.8720  104.5020  249.7550 O.3   8140  MOL8140    -0.4105
  37419  H        152.4490  105.3220  250.0850 H     8140  MOL8140     0.2052
  37420  H        152.1560  103.8520  249.5310 H     8140  MOL8140     0.2052
  37421  O        190.0960   93.7390   17.1020 O.3   8141  MOL8141    -0.4105
  37422  H        189.8620   93.8920   18.0420 H     8141  MOL8141     0.2052
  37423  H        189.2700   93.8260   16.5590 H     8141  MOL8141     0.2052
  37424  O         26.9080  188.2680   81.0940 O.3   8142  MOL8142    -0.4105
  37425  H         26.9930  187.4730   81.6610 H     8142  MOL8142     0.2052
  37426  H         27.7040  188.3140   80.5040 H     8142  MOL8142     0.2052
  37427  O        148.3890  153.5030   58.0390 O.3   8143  MOL8143    -0.4105
  37428  H        147.5300  153.1430   58.3440 H     8143  MOL8143     0.2052
  37429  H        149.1100  152.9040   58.3660 H     8143  MOL8143     0.2052
  37430  O        170.6110  154.1020  261.5500 O.3   8144  MOL8144    -0.4105
  37431  H        169.9440  153.8030  260.8970 H     8144  MOL8144     0.2052
  37432  H        171.1110  153.3070  261.8700 H     8144  MOL8144     0.2052
  37433  O         35.1110   74.7850   53.9690 O.3   8145  MOL8145    -0.4105
  37434  H         35.5660   75.4470   54.5300 H     8145  MOL8145     0.2052
  37435  H         35.3990   74.9220   53.0300 H     8145  MOL8145     0.2052
  37436  O        194.9410   62.7400   37.2290 O.3   8146  MOL8146    -0.4105
  37437  H        194.7330   63.5640   37.7170 H     8146  MOL8146     0.2052
  37438  H        194.1280   62.4580   36.7360 H     8146  MOL8146     0.2052
  37439  O         20.9470   94.8690  258.4530 O.3   8147  MOL8147    -0.4105
  37440  H         21.4800   94.4350  257.7550 H     8147  MOL8147     0.2052
  37441  H         21.0020   94.3160  259.2750 H     8147  MOL8147     0.2052
  37442  O        186.2380   26.8300  169.0730 O.3   8148  MOL8148    -0.4105
  37443  H        185.5780   27.4710  169.4100 H     8148  MOL8148     0.2052
  37444  H        185.8110   26.2920  168.3570 H     8148  MOL8148     0.2052
  37445  O        167.5250  113.1950  285.9230 O.3   8149  MOL8149    -0.4105
  37446  H        167.0100  112.5000  285.4620 H     8149  MOL8149     0.2052
  37447  H        167.6320  112.9240  286.8710 H     8149  MOL8149     0.2052
  37448  O         24.4730   27.8560   42.3720 O.3   8150  MOL8150    -0.4105
  37449  H         24.8740   26.9620   42.3390 H     8150  MOL8150     0.2052
  37450  H         23.4880   27.7530   42.4210 H     8150  MOL8150     0.2052
  37451  O        136.5230   12.6330   48.8450 O.3   8151  MOL8151    -0.4105
  37452  H        135.8800   12.8130   48.1280 H     8151  MOL8151     0.2052
  37453  H        137.4380   12.7410   48.4750 H     8151  MOL8151     0.2052
  37454  O        112.9630   97.7630   19.4150 O.3   8152  MOL8152    -0.4105
  37455  H        113.8720   98.0740   19.2180 H     8152  MOL8152     0.2052
  37456  H        112.9860   96.7750   19.5060 H     8152  MOL8152     0.2052
  37457  O         35.6780  181.1110  104.2110 O.3   8153  MOL8153    -0.4105
  37458  H         35.2490  181.2590  105.0800 H     8153  MOL8153     0.2052
  37459  H         36.4720  180.5330  104.3510 H     8153  MOL8153     0.2052
  37460  O         75.6740   43.1260  153.0230 O.3   8154  MOL8154    -0.4105
  37461  H         74.8720   42.5640  152.9780 H     8154  MOL8154     0.2052
  37462  H         75.6620   43.7460  152.2480 H     8154  MOL8154     0.2052
  37463  O         33.9160  145.2170   93.7020 O.3   8155  MOL8155    -0.4105
  37464  H         33.2920  144.5200   93.4110 H     8155  MOL8155     0.2052
  37465  H         34.6810  144.7790   94.1570 H     8155  MOL8155     0.2052
  37466  O        126.5640   43.3660   88.1630 O.3   8156  MOL8156    -0.4105
  37467  H        126.2490   44.2190   88.5290 H     8156  MOL8156     0.2052
  37468  H        127.5560   43.3840   88.1430 H     8156  MOL8156     0.2052
  37469  O         13.2080  171.5490  138.9060 O.3   8157  MOL8157    -0.4105
  37470  H         12.6150  170.9770  138.3770 H     8157  MOL8157     0.2052
  37471  H         14.1460  171.3240  138.6740 H     8157  MOL8157     0.2052
  37472  O         23.7660  172.2260  166.1100 O.3   8158  MOL8158    -0.4105
  37473  H         24.6560  172.4120  165.7440 H     8158  MOL8158     0.2052
  37474  H         23.8790  171.7510  166.9740 H     8158  MOL8158     0.2052
  37475  O        108.7840    7.6670  118.0390 O.3   8159  MOL8159    -0.4105
  37476  H        108.6070    8.2740  117.2910 H     8159  MOL8159     0.2052
  37477  H        109.5560    8.0220  118.5520 H     8159  MOL8159     0.2052
  37478  O        131.6310  125.4620  222.2920 O.3   8160  MOL8160    -0.4105
  37479  H        131.6480  124.4930  222.1490 H     8160  MOL8160     0.2052
  37480  H        130.6850  125.7460  222.3820 H     8160  MOL8160     0.2052
  37481  O        179.4210  166.2980  227.3270 O.3   8161  MOL8161    -0.4105
  37482  H        179.3300  166.6860  226.4320 H     8161  MOL8161     0.2052
  37483  H        180.3720  166.3710  227.6020 H     8161  MOL8161     0.2052
  37484  O        149.3210  115.4890  236.6720 O.3   8162  MOL8162    -0.4105
  37485  H        149.7100  115.0640  235.8780 H     8162  MOL8162     0.2052
  37486  H        149.9830  115.4340  237.4090 H     8162  MOL8162     0.2052
  37487  O        166.1920  173.3190  246.3600 O.3   8163  MOL8163    -0.4105
  37488  H        166.4630  172.9000  247.2040 H     8163  MOL8163     0.2052
  37489  H        165.7050  172.6440  245.8210 H     8163  MOL8163     0.2052
  37490  O          3.9380  198.8620  282.5480 O.3   8164  MOL8164    -0.4105
  37491  H          3.1440  199.4220  282.6730 H     8164  MOL8164     0.2052
  37492  H          3.6670  197.9120  282.6460 H     8164  MOL8164     0.2052
  37493  O          0.6240   69.5960    2.5910 O.3   8165  MOL8165    -0.4105
  37494  H          1.2160   69.4430    3.3570 H     8165  MOL8165     0.2052
  37495  H          0.5120   68.7360    2.1090 H     8165  MOL8165     0.2052
  37496  O        140.6600   18.9380  250.1740 O.3   8166  MOL8166    -0.4105
  37497  H        139.8660   18.3720  250.2690 H     8166  MOL8166     0.2052
  37498  H        140.5380   19.7420  250.7430 H     8166  MOL8166     0.2052
  37499  O         12.7340    9.2040  254.8870 O.3   8167  MOL8167    -0.4105
  37500  H         13.2120    9.9490  255.3070 H     8167  MOL8167     0.2052
  37501  H         12.1150    8.8150  255.5580 H     8167  MOL8167     0.2052
  37502  O        111.7220  130.3250  170.9540 O.3   8168  MOL8168    -0.4105
  37503  H        112.3420  129.6170  170.6800 H     8168  MOL8168     0.2052
  37504  H        110.7960  130.0080  170.7910 H     8168  MOL8168     0.2052
  37505  O         36.2280  164.8940  211.0740 O.3   8169  MOL8169    -0.4105
  37506  H         36.8320  164.1240  211.1160 H     8169  MOL8169     0.2052
  37507  H         36.7780  165.7160  210.9860 H     8169  MOL8169     0.2052
  37508  O        153.6810  169.3190  204.8330 O.3   8170  MOL8170    -0.4105
  37509  H        153.9460  168.4470  204.4730 H     8170  MOL8170     0.2052
  37510  H        152.8960  169.1850  205.4240 H     8170  MOL8170     0.2052
  37511  O        111.9220  143.9050  167.6150 O.3   8171  MOL8171    -0.4105
  37512  H        112.2550  143.3960  168.3840 H     8171  MOL8171     0.2052
  37513  H        112.6820  144.4100  167.2250 H     8171  MOL8171     0.2052
  37514  O          0.0010   76.4270  224.2840 O.3   8172  MOL8172    -0.4105
  37515  H          0.4600   76.9500  224.9740 H     8172  MOL8172     0.2052
  37516  H          0.1130   76.8940  223.4150 H     8172  MOL8172     0.2052
  37517  O        187.8150   41.9500  226.0870 O.3   8173  MOL8173    -0.4105
  37518  H        186.8680   42.1600  225.9500 H     8173  MOL8173     0.2052
  37519  H        188.0130   41.0920  225.6280 H     8173  MOL8173     0.2052
  37520  O        154.6790  157.6410   49.8310 O.3   8174  MOL8174    -0.4105
  37521  H        154.0550  158.3600   50.0650 H     8174  MOL8174     0.2052
  37522  H        155.6020  158.0050   49.8720 H     8174  MOL8174     0.2052
  37523  O         38.4750  172.4920   89.3480 O.3   8175  MOL8175    -0.4105
  37524  H         39.3610  172.8700   89.5280 H     8175  MOL8175     0.2052
  37525  H         38.5260  171.5090   89.4700 H     8175  MOL8175     0.2052
  37526  O        194.4910    6.1610    0.5700 O.3   8176  MOL8176    -0.4105
  37527  H        194.6900    5.3820    1.1300 H     8176  MOL8176     0.2052
  37528  H        193.7070    5.9420    0.0010 H     8176  MOL8176     0.2052
  37529  O        169.5850  190.2430   62.5480 O.3   8177  MOL8177    -0.4105
  37530  H        170.3990  189.7430   62.3300 H     8177  MOL8177     0.2052
  37531  H        169.8380  191.1870   62.7240 H     8177  MOL8177     0.2052
  37532  O         13.5970   89.2690    0.6280 O.3   8178  MOL8178    -0.4105
  37533  H         14.2000   89.8320    0.0980 H     8178  MOL8178     0.2052
  37534  H         12.9790   89.8610    1.1290 H     8178  MOL8178     0.2052
  37535  O         88.7290    4.8460   54.9080 O.3   8179  MOL8179    -0.4105
  37536  H         87.9520    4.2850   55.1120 H     8179  MOL8179     0.2052
  37537  H         89.4650    4.2570   54.5980 H     8179  MOL8179     0.2052
  37538  O        163.3670   20.8250   98.5100 O.3   8180  MOL8180    -0.4105
  37539  H        163.5370   19.8620   98.4560 H     8180  MOL8180     0.2052
  37540  H        164.2000   21.2710   98.8140 H     8180  MOL8180     0.2052
  37541  O        189.9330  174.7810  125.7790 O.3   8181  MOL8181    -0.4105
  37542  H        189.7660  174.1790  126.5340 H     8181  MOL8181     0.2052
  37543  H        190.4060  174.2690  125.0730 H     8181  MOL8181     0.2052
  37544  O        116.2770  181.4630  145.2980 O.3   8182  MOL8182    -0.4105
  37545  H        116.6360  182.2170  144.7850 H     8182  MOL8182     0.2052
  37546  H        116.1280  180.7060  144.6750 H     8182  MOL8182     0.2052
  37547  O          3.6720  182.4270  112.2520 O.3   8183  MOL8183    -0.4105
  37548  H          2.8660  182.8330  112.6350 H     8183  MOL8183     0.2052
  37549  H          3.5470  181.4420  112.2400 H     8183  MOL8183     0.2052
  37550  O        177.2970   15.7350  181.5690 O.3   8184  MOL8184    -0.4105
  37551  H        176.3930   15.4220  181.7810 H     8184  MOL8184     0.2052
  37552  H        177.9320   14.9930  181.7430 H     8184  MOL8184     0.2052
  37553  O         37.0480   37.1450   99.2540 O.3   8185  MOL8185    -0.4105
  37554  H         37.7160   36.9650   99.9480 H     8185  MOL8185     0.2052
  37555  H         36.5720   37.9830   99.4900 H     8185  MOL8185     0.2052
  37556  O        104.9970   99.7000  248.6730 O.3   8186  MOL8186    -0.4105
  37557  H        105.0860   98.7680  248.3850 H     8186  MOL8186     0.2052
  37558  H        105.8110   99.9470  249.1840 H     8186  MOL8186     0.2052
  37559  O         65.8970   69.3880   25.9570 O.3   8187  MOL8187    -0.4105
  37560  H         65.9730   68.4300   25.7670 H     8187  MOL8187     0.2052
  37561  H         65.4160   69.8170   25.2020 H     8187  MOL8187     0.2052
  37562  O        124.4140  145.0910  224.7790 O.3   8188  MOL8188    -0.4105
  37563  H        125.2180  144.6310  225.0980 H     8188  MOL8188     0.2052
  37564  H        124.6650  146.0180  224.5290 H     8188  MOL8188     0.2052
  37565  O         96.2380  193.6410  161.1000 O.3   8189  MOL8189    -0.4105
  37566  H         95.9490  192.7240  161.2910 H     8189  MOL8189     0.2052
  37567  H         95.6600  194.0050  160.3800 H     8189  MOL8189     0.2052
  37568  O         93.9560   61.0900  244.9910 O.3   8190  MOL8190    -0.4105
  37569  H         94.4110   60.3910  245.5050 H     8190  MOL8190     0.2052
  37570  H         93.0180   60.8020  244.8390 H     8190  MOL8190     0.2052
  37571  O         28.7990  161.1800  236.3720 O.3   8191  MOL8191    -0.4105
  37572  H         29.4350  161.8930  236.5900 H     8191  MOL8191     0.2052
  37573  H         29.1890  160.6270  235.6460 H     8191  MOL8191     0.2052
  37574  O         46.5930  166.4950  145.3040 O.3   8192  MOL8192    -0.4105
  37575  H         46.5750  165.5170  145.3640 H     8192  MOL8192     0.2052
  37576  H         45.6560  166.8200  145.2700 H     8192  MOL8192     0.2052
  37577  O         22.1950  143.7980  119.2930 O.3   8193  MOL8193    -0.4105
  37578  H         21.9530  142.8630  119.1290 H     8193  MOL8193     0.2052
  37579  H         22.8770  144.0650  118.6230 H     8193  MOL8193     0.2052
  37580  O        150.9620  102.3010   50.4760 O.3   8194  MOL8194    -0.4105
  37581  H        151.1030  102.8950   49.7090 H     8194  MOL8194     0.2052
  37582  H        151.6690  102.4890   51.1480 H     8194  MOL8194     0.2052
  37583  O        159.3770   80.7380  263.4520 O.3   8195  MOL8195    -0.4105
  37584  H        159.7850   79.8630  263.6200 H     8195  MOL8195     0.2052
  37585  H        160.0900   81.3610  263.1550 H     8195  MOL8195     0.2052
  37586  O        165.2340   45.4860   50.0760 O.3   8196  MOL8196    -0.4105
  37587  H        164.6650   44.7050   50.2420 H     8196  MOL8196     0.2052
  37588  H        166.1000   45.1670   49.7140 H     8196  MOL8196     0.2052
  37589  O        157.3960  120.9890  261.8510 O.3   8197  MOL8197    -0.4105
  37590  H        158.3290  120.8660  262.1250 H     8197  MOL8197     0.2052
  37591  H        157.3150  121.8770  261.4150 H     8197  MOL8197     0.2052
  37592  O         87.1470   43.3600  252.9340 O.3   8198  MOL8198    -0.4105
  37593  H         87.6770   43.1870  252.1280 H     8198  MOL8198     0.2052
  37594  H         87.2750   44.3100  253.1910 H     8198  MOL8198     0.2052
  37595  O        107.6690   35.5950  230.0460 O.3   8199  MOL8199    -0.4105
  37596  H        106.8160   35.1120  230.0440 H     8199  MOL8199     0.2052
  37597  H        107.4750   36.5680  230.0460 H     8199  MOL8199     0.2052
  37598  O         63.0410  152.1710  279.4430 O.3   8200  MOL8200    -0.4105
  37599  H         63.7020  152.2280  280.1650 H     8200  MOL8200     0.2052
  37600  H         63.3870  152.6790  278.6640 H     8200  MOL8200     0.2052
  37601  O         92.7050   74.1220   13.1250 O.3   8201  MOL8201    -0.4105
  37602  H         92.9250   74.5170   13.9950 H     8201  MOL8201     0.2052
  37603  H         93.5080   73.6450   12.7890 H     8201  MOL8201     0.2052
  37604  O        138.1710   34.8100  293.4320 O.3   8202  MOL8202    -0.4105
  37605  H        138.7070   35.6280  293.5030 H     8202  MOL8202     0.2052
  37606  H        137.3690   34.9130  294.0070 H     8202  MOL8202     0.2052
  37607  O          2.8160  106.5490  143.5250 O.3   8203  MOL8203    -0.4105
  37608  H          3.0630  105.7530  143.0110 H     8203  MOL8203     0.2052
  37609  H          1.8630  106.4670  143.7880 H     8203  MOL8203     0.2052
  37610  O        117.6510  156.1230   21.2850 O.3   8204  MOL8204    -0.4105
  37611  H        116.8820  155.5950   21.5850 H     8204  MOL8204     0.2052
  37612  H        117.9790  156.6580   22.0530 H     8204  MOL8204     0.2052
  37613  O         11.0280   80.0580  113.0310 O.3   8205  MOL8205    -0.4105
  37614  H         10.0800   80.2780  112.9200 H     8205  MOL8205     0.2052
  37615  H         11.1400   79.0830  112.8800 H     8205  MOL8205     0.2052
  37616  O        120.8750   77.0420   76.3870 O.3   8206  MOL8206    -0.4105
  37617  H        121.6050   77.3800   76.9460 H     8206  MOL8206     0.2052
  37618  H        120.6550   76.1220   76.6860 H     8206  MOL8206     0.2052
  37619  O        180.5800   71.6160  130.4750 O.3   8207  MOL8207    -0.4105
  37620  H        179.9170   72.3340  130.4130 H     8207  MOL8207     0.2052
  37621  H        180.1060   70.7740  130.7000 H     8207  MOL8207     0.2052
  37622  O        134.0760   94.2180   61.8490 O.3   8208  MOL8208    -0.4105
  37623  H        133.6310   95.0910   61.8490 H     8208  MOL8208     0.2052
  37624  H        133.3800   93.5140   61.9190 H     8208  MOL8208     0.2052
  37625  O         90.7920  195.8320  158.7670 O.3   8209  MOL8209    -0.4105
  37626  H         91.0870  196.7540  158.6140 H     8209  MOL8209     0.2052
  37627  H         91.5670  195.2300  158.6200 H     8209  MOL8209     0.2052
  37628  O        101.3590  191.3210  274.1300 O.3   8210  MOL8210    -0.4105
  37629  H        101.0090  190.4680  274.4630 H     8210  MOL8210     0.2052
  37630  H        102.1650  191.1320  273.5830 H     8210  MOL8210     0.2052
  37631  O        147.7020   27.3570  140.0000 O.3   8211  MOL8211    -0.4105
  37632  H        147.0800   26.6540  139.7180 H     8211  MOL8211     0.2052
  37633  H        148.0180   27.8350  139.1900 H     8211  MOL8211     0.2052
  37634  O         35.2090   10.1690  222.1600 O.3   8212  MOL8212    -0.4105
  37635  H         35.0370   10.7900  222.8980 H     8212  MOL8212     0.2052
  37636  H         36.0020    9.6200  222.3940 H     8212  MOL8212     0.2052
  37637  O         59.3380  124.6260   55.3960 O.3   8213  MOL8213    -0.4105
  37638  H         58.5030  124.1210   55.4830 H     8213  MOL8213     0.2052
  37639  H         59.4190  124.9330   54.4560 H     8213  MOL8213     0.2052
  37640  O        177.8860  109.6050  247.1310 O.3   8214  MOL8214    -0.4105
  37641  H        178.0170  110.5690  247.2470 H     8214  MOL8214     0.2052
  37642  H        178.6750  109.2390  246.6540 H     8214  MOL8214     0.2052
  37643  O         20.3150   73.1850  240.1040 O.3   8215  MOL8215    -0.4105
  37644  H         19.8790   72.3120  240.0100 H     8215  MOL8215     0.2052
  37645  H         19.6120   73.8690  240.2520 H     8215  MOL8215     0.2052
  37646  O         45.7750  156.7960   73.1980 O.3   8216  MOL8216    -0.4105
  37647  H         46.7390  156.7150   73.0420 H     8216  MOL8216     0.2052
  37648  H         45.6310  156.9770   74.1630 H     8216  MOL8216     0.2052
  37649  O         63.9680  179.6570   50.1400 O.3   8217  MOL8217    -0.4105
  37650  H         64.0780  178.7760   49.7240 H     8217  MOL8217     0.2052
  37651  H         63.0190  179.7560   50.4110 H     8217  MOL8217     0.2052
  37652  O        179.6580   96.2010   27.9760 O.3   8218  MOL8218    -0.4105
  37653  H        179.0460   96.9380   28.1800 H     8218  MOL8218     0.2052
  37654  H        179.7140   96.1080   26.9890 H     8218  MOL8218     0.2052
  37655  O        158.4680   44.7380   47.5290 O.3   8219  MOL8219    -0.4105
  37656  H        158.5150   45.6750   47.2460 H     8219  MOL8219     0.2052
  37657  H        157.6550   44.6220   48.0860 H     8219  MOL8219     0.2052
  37658  O        132.1400  193.7890  254.3030 O.3   8220  MOL8220    -0.4105
  37659  H        132.2690  193.9690  253.3480 H     8220  MOL8220     0.2052
  37660  H        131.2500  194.1400  254.5680 H     8220  MOL8220     0.2052
  37661  O        143.4420   51.6300  288.7430 O.3   8221  MOL8221    -0.4105
  37662  H        142.9870   52.2080  289.3910 H     8221  MOL8221     0.2052
  37663  H        142.8770   50.8290  288.5910 H     8221  MOL8221     0.2052
  37664  O        112.3460  126.2690  188.3800 O.3   8222  MOL8222    -0.4105
  37665  H        113.0860  126.4890  188.9840 H     8222  MOL8222     0.2052
  37666  H        112.7270  126.0510  187.4900 H     8222  MOL8222     0.2052
  37667  O        193.9670  127.6940  188.6830 O.3   8223  MOL8223    -0.4105
  37668  H        193.9730  126.7580  188.3920 H     8223  MOL8223     0.2052
  37669  H        194.8990  127.9580  188.8980 H     8223  MOL8223     0.2052
  37670  O         75.7510   32.1080  189.9920 O.3   8224  MOL8224    -0.4105
  37671  H         74.7930   31.9570  189.8480 H     8224  MOL8224     0.2052
  37672  H         76.0200   32.9100  189.4730 H     8224  MOL8224     0.2052
  37673  O         24.6470  170.5630  241.1470 O.3   8225  MOL8225    -0.4105
  37674  H         25.1230  169.7060  241.1620 H     8225  MOL8225     0.2052
  37675  H         25.3190  171.2920  241.1740 H     8225  MOL8225     0.2052
  37676  O         61.5400  105.1200  270.1750 O.3   8226  MOL8226    -0.4105
  37677  H         61.0190  105.6140  270.8420 H     8226  MOL8226     0.2052
  37678  H         60.9840  104.3690  269.8420 H     8226  MOL8226     0.2052
  37679  O        102.2130  157.0280  177.0070 O.3   8227  MOL8227    -0.4105
  37680  H        101.6330  157.8180  177.0130 H     8227  MOL8227     0.2052
  37681  H        101.6370  156.2200  177.0000 H     8227  MOL8227     0.2052
  37682  O         10.0260   18.7290  177.5820 O.3   8228  MOL8228    -0.4105
  37683  H         10.6450   18.4800  176.8640 H     8228  MOL8228     0.2052
  37684  H         10.2520   18.1950  178.3870 H     8228  MOL8228     0.2052
  37685  O         61.9690   46.1600   79.7310 O.3   8229  MOL8229    -0.4105
  37686  H         62.0020   47.0120   79.2470 H     8229  MOL8229     0.2052
  37687  H         62.3320   45.4520   79.1380 H     8229  MOL8229     0.2052
  37688  O        162.8260  168.0740  263.2470 O.3   8230  MOL8230    -0.4105
  37689  H        162.3010  168.8990  263.3190 H     8230  MOL8230     0.2052
  37690  H        162.2070  167.3030  263.3320 H     8230  MOL8230     0.2052
  37691  O        153.6850   17.1740  269.4820 O.3   8231  MOL8231    -0.4105
  37692  H        153.1560   16.6010  268.8890 H     8231  MOL8231     0.2052
  37693  H        154.5930   16.7800  269.5650 H     8231  MOL8231     0.2052
  37694  O        160.0630   94.8700  233.3270 O.3   8232  MOL8232    -0.4105
  37695  H        159.2660   94.3060  233.2420 H     8232  MOL8232     0.2052
  37696  H        160.1660   95.3890  232.4870 H     8232  MOL8232     0.2052
  37697  O         43.7890   47.3840   97.0560 O.3   8233  MOL8233    -0.4105
  37698  H         43.5040   48.0600   96.4070 H     8233  MOL8233     0.2052
  37699  H         44.7800   47.3920   97.0990 H     8233  MOL8233     0.2052
  37700  O        171.6080  135.4830  244.2030 O.3   8234  MOL8234    -0.4105
  37701  H        171.7200  134.5710  243.8620 H     8234  MOL8234     0.2052
  37702  H        171.0120  135.9750  243.5810 H     8234  MOL8234     0.2052
  37703  O         80.8290  146.2020  238.7690 O.3   8235  MOL8235    -0.4105
  37704  H         80.5550  147.1180  238.9840 H     8235  MOL8235     0.2052
  37705  H         80.0140  145.6740  238.5640 H     8235  MOL8235     0.2052
  37706  O        185.8730   85.1050   44.6660 O.3   8236  MOL8236    -0.4105
  37707  H        185.7330   84.1700   44.9260 H     8236  MOL8236     0.2052
  37708  H        186.5100   85.5140   45.3070 H     8236  MOL8236     0.2052
  37709  O         44.2180  152.8000  278.3190 O.3   8237  MOL8237    -0.4105
  37710  H         44.2350  152.8870  279.2950 H     8237  MOL8237     0.2052
  37711  H         44.7040  151.9710  278.0730 H     8237  MOL8237     0.2052
  37712  O        168.6740  197.7170   18.2870 O.3   8238  MOL8238    -0.4105
  37713  H        168.5960  197.6310   19.2610 H     8238  MOL8238     0.2052
  37714  H        167.9160  197.2300   17.8710 H     8238  MOL8238     0.2052
  37715  O         48.7170  138.3580  265.9590 O.3   8239  MOL8239    -0.4105
  37716  H         48.1470  139.0020  266.4300 H     8239  MOL8239     0.2052
  37717  H         49.3460  138.8650  265.3810 H     8239  MOL8239     0.2052
  37718  O        168.0750  160.4860  158.4110 O.3   8240  MOL8240    -0.4105
  37719  H        168.4130  161.2540  158.9170 H     8240  MOL8240     0.2052
  37720  H        168.6630  160.3500  157.6230 H     8240  MOL8240     0.2052
  37721  O        123.9080  185.8050  274.3990 O.3   8241  MOL8241    -0.4105
  37722  H        124.2940  186.3970  275.0780 H     8241  MOL8241     0.2052
  37723  H        122.9390  186.0030  274.3290 H     8241  MOL8241     0.2052
  37724  O         38.0870    3.2850  292.5090 O.3   8242  MOL8242    -0.4105
  37725  H         37.7240    2.4910  292.9540 H     8242  MOL8242     0.2052
  37726  H         38.1670    4.0090  293.1830 H     8242  MOL8242     0.2052
  37727  O        182.7740   89.8250  206.6070 O.3   8243  MOL8243    -0.4105
  37728  H        183.4190   89.5050  207.2720 H     8243  MOL8243     0.2052
  37729  H        182.2740   89.0420  206.2580 H     8243  MOL8243     0.2052
  37730  O        100.7650  144.3540  262.7140 O.3   8244  MOL8244    -0.4105
  37731  H        101.5300  144.9650  262.7770 H     8244  MOL8244     0.2052
  37732  H        101.1070  143.4240  262.7600 H     8244  MOL8244     0.2052
  37733  O         21.6270  137.7310  159.6620 O.3   8245  MOL8245    -0.4105
  37734  H         22.5480  137.4450  159.8370 H     8245  MOL8245     0.2052
  37735  H         21.6570  138.5780  159.1460 H     8245  MOL8245     0.2052
  37736  O        157.6840   12.4080  187.8570 O.3   8246  MOL8246    -0.4105
  37737  H        157.1630   11.6500  187.5200 H     8246  MOL8246     0.2052
  37738  H        157.2360   13.2460  187.5690 H     8246  MOL8246     0.2052
  37739  O        183.1970  151.7140   26.3990 O.3   8247  MOL8247    -0.4105
  37740  H        182.8840  151.0960   27.0920 H     8247  MOL8247     0.2052
  37741  H        183.7220  152.4320   26.8380 H     8247  MOL8247     0.2052
  37742  O        148.6430   34.0500  159.0470 O.3   8248  MOL8248    -0.4105
  37743  H        149.4530   34.4980  159.3680 H     8248  MOL8248     0.2052
  37744  H        147.8560   34.5670  159.3610 H     8248  MOL8248     0.2052
  37745  O         49.6150   25.2880  167.9910 O.3   8249  MOL8249    -0.4105
  37746  H         49.9230   24.8320  168.8020 H     8249  MOL8249     0.2052
  37747  H         49.9380   26.2260  168.0190 H     8249  MOL8249     0.2052
  37748  O        156.3880   37.8480   49.9780 O.3   8250  MOL8250    -0.4105
  37749  H        155.7700   38.5480   50.2750 H     8250  MOL8250     0.2052
  37750  H        157.3160   38.1730   50.1180 H     8250  MOL8250     0.2052
  37751  O         21.9680  152.4630  283.3350 O.3   8251  MOL8251    -0.4105
  37752  H         21.5980  151.5820  283.1190 H     8251  MOL8251     0.2052
  37753  H         21.2630  152.9930  283.7900 H     8251  MOL8251     0.2052
  37754  O        178.6790   82.3880   40.1060 O.3   8252  MOL8252    -0.4105
  37755  H        178.4720   83.3350   40.2490 H     8252  MOL8252     0.2052
  37756  H        177.8910   81.9590   39.6820 H     8252  MOL8252     0.2052
  37757  O        176.3490   58.1670   42.6910 O.3   8253  MOL8253    -0.4105
  37758  H        177.2940   57.9100   42.7380 H     8253  MOL8253     0.2052
  37759  H        176.2940   59.1560   42.7460 H     8253  MOL8253     0.2052
  37760  O         22.2870   64.8890   40.1520 O.3   8254  MOL8254    -0.4105
  37761  H         22.4020   65.8620   40.1840 H     8254  MOL8254     0.2052
  37762  H         23.0480   64.4710   40.6310 H     8254  MOL8254     0.2052
  37763  O         91.9950  109.9910  296.9270 O.3   8255  MOL8255    -0.4105
  37764  H         92.0190  110.9520  297.1140 H     8255  MOL8255     0.2052
  37765  H         91.0760  109.6620  297.1100 H     8255  MOL8255     0.2052
  37766  O         21.9010  129.0650    3.6680 O.3   8256  MOL8256    -0.4105
  37767  H         21.9910  128.9970    4.6420 H     8256  MOL8256     0.2052
  37768  H         21.2600  129.7950    3.4660 H     8256  MOL8256     0.2052
  37769  O         75.8730   44.6520   28.0370 O.3   8257  MOL8257    -0.4105
  37770  H         75.6710   43.6990   28.1380 H     8257  MOL8257     0.2052
  37771  H         75.5050   44.9580   27.1680 H     8257  MOL8257     0.2052
  37772  O         74.9660  141.9510  233.2510 O.3   8258  MOL8258    -0.4105
  37773  H         74.3740  141.1850  233.3990 H     8258  MOL8258     0.2052
  37774  H         74.6110  142.4760  232.4880 H     8258  MOL8258     0.2052
  37775  O         62.2690  120.8660   74.3380 O.3   8259  MOL8259    -0.4105
  37776  H         62.6960  121.6060   73.8580 H     8259  MOL8259     0.2052
  37777  H         62.3830  120.0400   73.8000 H     8259  MOL8259     0.2052
  37778  O         93.1400   53.7460   27.4650 O.3   8260  MOL8260    -0.4105
  37779  H         92.7630   54.5970   27.7720 H     8260  MOL8260     0.2052
  37780  H         93.8530   53.9430   26.8030 H     8260  MOL8260     0.2052
  37781  O        103.8870  198.2330   46.6560 O.3   8261  MOL8261    -0.4105
  37782  H        104.7430  197.7710   46.5350 H     8261  MOL8261     0.2052
  37783  H        103.1810  197.5480   46.7890 H     8261  MOL8261     0.2052
  37784  O        193.5390   87.7170  102.0080 O.3   8262  MOL8262    -0.4105
  37785  H        193.1280   87.3160  102.8030 H     8262  MOL8262     0.2052
  37786  H        194.1050   88.4770  102.3020 H     8262  MOL8262     0.2052
  37787  O        166.2640   83.9930  180.9040 O.3   8263  MOL8263    -0.4105
  37788  H        165.4390   83.9030  180.3820 H     8263  MOL8263     0.2052
  37789  H        167.0310   83.7840  180.3100 H     8263  MOL8263     0.2052
  37790  O        147.2670   33.3850  180.7640 O.3   8264  MOL8264    -0.4105
  37791  H        146.5070   33.7180  180.2430 H     8264  MOL8264     0.2052
  37792  H        147.5530   32.5180  180.3750 H     8264  MOL8264     0.2052
  37793  O         95.9220   30.0570  118.2220 O.3   8265  MOL8265    -0.4105
  37794  H         95.0000   30.1610  118.5370 H     8265  MOL8265     0.2052
  37795  H         96.4640   30.7990  118.5970 H     8265  MOL8265     0.2052
  37796  O         56.0170  120.5000  261.4780 O.3   8266  MOL8266    -0.4105
  37797  H         56.5230  120.0270  262.1720 H     8266  MOL8266     0.2052
  37798  H         55.6920  121.3560  261.8610 H     8266  MOL8266     0.2052
  37799  O         78.8940   97.9050  281.9660 O.3   8267  MOL8267    -0.4105
  37800  H         78.2920   97.1760  281.7090 H     8267  MOL8267     0.2052
  37801  H         79.6130   97.5280  282.5360 H     8267  MOL8267     0.2052
  37802  O        139.9990   93.0750  269.9420 O.3   8268  MOL8268    -0.4105
  37803  H        140.1470   92.3390  270.5710 H     8268  MOL8268     0.2052
  37804  H        139.8060   93.8960  270.4650 H     8268  MOL8268     0.2052
  37805  O        180.2960    4.7350  201.5550 O.3   8269  MOL8269    -0.4105
  37806  H        180.4710    4.3730  200.6610 H     8269  MOL8269     0.2052
  37807  H        179.3320    4.6150  201.7550 H     8269  MOL8269     0.2052
  37808  O         59.8400   57.9160   52.5650 O.3   8270  MOL8270    -0.4105
  37809  H         59.9980   57.8830   51.5980 H     8270  MOL8270     0.2052
  37810  H         60.7030   57.7500   53.0260 H     8270  MOL8270     0.2052
  37811  O        130.2110   19.3330  105.3750 O.3   8271  MOL8271    -0.4105
  37812  H        130.1150   18.9860  104.4630 H     8271  MOL8271     0.2052
  37813  H        129.3750   19.8130  105.6130 H     8271  MOL8271     0.2052
  37814  O        112.4760   78.5470  225.2310 O.3   8272  MOL8272    -0.4105
  37815  H        113.0300   77.7390  225.2050 H     8272  MOL8272     0.2052
  37816  H        113.0770   79.3340  225.3010 H     8272  MOL8272     0.2052
  37817  O        147.1220  110.4200   28.4320 O.3   8273  MOL8273    -0.4105
  37818  H        146.5620  109.6230   28.5390 H     8273  MOL8273     0.2052
  37819  H        146.5990  111.1010   27.9330 H     8273  MOL8273     0.2052
  37820  O        140.2390   60.6080    4.0250 O.3   8274  MOL8274    -0.4105
  37821  H        140.3870   60.6760    4.9910 H     8274  MOL8274     0.2052
  37822  H        140.1290   59.6490    3.7940 H     8274  MOL8274     0.2052
  37823  O        180.3720   12.5360  166.5790 O.3   8275  MOL8275    -0.4105
  37824  H        181.0400   13.2280  166.7670 H     8275  MOL8275     0.2052
  37825  H        180.7590   11.6560  166.8260 H     8275  MOL8275     0.2052
  37826  O        187.7670   22.0770  275.7100 O.3   8276  MOL8276    -0.4105
  37827  H        187.6000   22.2090  276.6660 H     8276  MOL8276     0.2052
  37828  H        188.6440   21.6230  275.6070 H     8276  MOL8276     0.2052
  37829  O        191.4180   65.0290   68.3850 O.3   8277  MOL8277    -0.4105
  37830  H        190.4670   64.7970   68.3420 H     8277  MOL8277     0.2052
  37831  H        191.4940   66.0150   68.4650 H     8277  MOL8277     0.2052
  37832  O          8.1460  144.3240  291.5860 O.3   8278  MOL8278    -0.4105
  37833  H          8.2690  145.2930  291.6640 H     8278  MOL8278     0.2052
  37834  H          9.0410  143.8960  291.5950 H     8278  MOL8278     0.2052
  37835  O        181.6830  119.9660  203.6660 O.3   8279  MOL8279    -0.4105
  37836  H        181.8050  120.6530  202.9770 H     8279  MOL8279     0.2052
  37837  H        180.7090  119.8290  203.7980 H     8279  MOL8279     0.2052
  37838  O         69.0210   16.8140  195.0610 O.3   8280  MOL8280    -0.4105
  37839  H         69.9100   17.2110  195.1690 H     8280  MOL8280     0.2052
  37840  H         68.3740   17.3570  195.5820 H     8280  MOL8280     0.2052
  37841  O        156.5700  131.1170  258.8740 O.3   8281  MOL8281    -0.4105
  37842  H        157.3920  131.5790  259.1420 H     8281  MOL8281     0.2052
  37843  H        156.5150  131.1310  257.8830 H     8281  MOL8281     0.2052
  37844  O         69.8680  163.1660  285.9200 O.3   8282  MOL8282    -0.4105
  37845  H         70.1010  164.1150  286.0010 H     8282  MOL8282     0.2052
  37846  H         69.4430  163.0260  285.0340 H     8282  MOL8282     0.2052
  37847  O        197.3280   27.1030   38.1020 O.3   8283  MOL8283    -0.4105
  37848  H        196.8600   26.4340   37.5600 H     8283  MOL8283     0.2052
  37849  H        198.2800   26.8310   38.1760 H     8283  MOL8283     0.2052
  37850  O        191.4420  162.4270  280.5770 O.3   8284  MOL8284    -0.4105
  37851  H        191.0940  163.2990  280.8600 H     8284  MOL8284     0.2052
  37852  H        192.3610  162.3270  280.9380 H     8284  MOL8284     0.2052
  37853  O        188.9480  155.7330  233.0220 O.3   8285  MOL8285    -0.4105
  37854  H        189.4840  155.3070  233.7240 H     8285  MOL8285     0.2052
  37855  H        188.0190  155.8320  233.3570 H     8285  MOL8285     0.2052
  37856  O        146.1740   47.8370   78.9420 O.3   8286  MOL8286    -0.4105
  37857  H        145.4390   47.4030   79.4230 H     8286  MOL8286     0.2052
  37858  H        146.0290   48.8180   78.9730 H     8286  MOL8286     0.2052
  37859  O        104.2440  155.9760  228.8230 O.3   8287  MOL8287    -0.4105
  37860  H        103.4510  155.4020  228.8780 H     8287  MOL8287     0.2052
  37861  H        104.5550  156.1640  229.7470 H     8287  MOL8287     0.2052
  37862  O          3.1070   37.3090  292.1920 O.3   8288  MOL8288    -0.4105
  37863  H          3.9910   36.9560  292.4250 H     8288  MOL8288     0.2052
  37864  H          3.2070   38.2700  291.9630 H     8288  MOL8288     0.2052
  37865  O        175.4750   13.0250  164.4680 O.3   8289  MOL8289    -0.4105
  37866  H        175.8300   12.9380  163.5590 H     8289  MOL8289     0.2052
  37867  H        174.6380   12.4960  164.5280 H     8289  MOL8289     0.2052
  37868  O         18.0660  182.3780  195.9670 O.3   8290  MOL8290    -0.4105
  37869  H         17.1640  182.7420  195.8490 H     8290  MOL8290     0.2052
  37870  H         18.6410  182.7320  195.2400 H     8290  MOL8290     0.2052
  37871  O        190.2670   39.0050  132.4150 O.3   8291  MOL8291    -0.4105
  37872  H        190.8810   38.2470  132.5080 H     8291  MOL8291     0.2052
  37873  H        190.7840   39.8410  132.5500 H     8291  MOL8291     0.2052
  37874  O        133.0840   28.9080   53.1090 O.3   8292  MOL8292    -0.4105
  37875  H        133.2200   29.2430   52.1980 H     8292  MOL8292     0.2052
  37876  H        133.8630   28.3450   53.3530 H     8292  MOL8292     0.2052
  37877  O        142.5270   35.0320  247.6810 O.3   8293  MOL8293    -0.4105
  37878  H        142.8880   35.9430  247.7060 H     8293  MOL8293     0.2052
  37879  H        141.6120   35.0500  248.0640 H     8293  MOL8293     0.2052
  37880  O        176.7670   56.4580  115.6940 O.3   8294  MOL8294    -0.4105
  37881  H        177.0640   55.8810  114.9600 H     8294  MOL8294     0.2052
  37882  H        176.8740   57.4030  115.4090 H     8294  MOL8294     0.2052
  37883  O         74.2700  168.3160   28.8920 O.3   8295  MOL8295    -0.4105
  37884  H         73.5410  168.5600   28.2840 H     8295  MOL8295     0.2052
  37885  H         74.6630  167.4600   28.5780 H     8295  MOL8295     0.2052
  37886  O        126.9620    6.7000  174.8230 O.3   8296  MOL8296    -0.4105
  37887  H        127.3150    5.9890  175.3980 H     8296  MOL8296     0.2052
  37888  H        127.3870    6.6170  173.9300 H     8296  MOL8296     0.2052
  37889  O         32.6690   62.0300  199.6880 O.3   8297  MOL8297    -0.4105
  37890  H         31.8160   61.5470  199.6970 H     8297  MOL8297     0.2052
  37891  H         33.4040   61.3630  199.6790 H     8297  MOL8297     0.2052
  37892  O        177.2190  125.3480   96.6960 O.3   8298  MOL8298    -0.4105
  37893  H        176.6670  125.9120   96.1150 H     8298  MOL8298     0.2052
  37894  H        177.1670  125.7090   97.6190 H     8298  MOL8298     0.2052
  37895  O        172.3010   77.1000   11.9240 O.3   8299  MOL8299    -0.4105
  37896  H        171.4430   76.8430   11.5250 H     8299  MOL8299     0.2052
  37897  H        172.6240   77.9180   11.4650 H     8299  MOL8299     0.2052
  37898  O         91.1350   20.0240  162.9880 O.3   8300  MOL8300    -0.4105
  37899  H         92.0910   19.8360  163.0960 H     8300  MOL8300     0.2052
  37900  H         90.7840   19.4420  162.2650 H     8300  MOL8300     0.2052
  37901  O        121.8780  125.5780  199.8830 O.3   8301  MOL8301    -0.4105
  37902  H        122.5630  125.2470  200.5000 H     8301  MOL8301     0.2052
  37903  H        121.1040  125.8930  200.4180 H     8301  MOL8301     0.2052
  37904  O          5.2420   63.0940  195.8240 O.3   8302  MOL8302    -0.4105
  37905  H          5.8030   63.6310  195.2270 H     8302  MOL8302     0.2052
  37906  H          5.7420   62.9410  196.6670 H     8302  MOL8302     0.2052
  37907  O        198.7870  168.8600   20.1420 O.3   8303  MOL8303    -0.4105
  37908  H        198.8630  169.0010   21.1080 H     8303  MOL8303     0.2052
  37909  H        199.6360  169.1530   19.7180 H     8303  MOL8303     0.2052
  37910  O        173.7350  123.1370   86.5920 O.3   8304  MOL8304    -0.4105
  37911  H        173.5650  122.6800   85.7420 H     8304  MOL8304     0.2052
  37912  H        174.5520  122.7450   86.9970 H     8304  MOL8304     0.2052
  37913  O        176.2190  153.5230   94.2630 O.3   8305  MOL8305    -0.4105
  37914  H        176.8670  154.2580   94.2440 H     8305  MOL8305     0.2052
  37915  H        175.3070  153.9140   94.2970 H     8305  MOL8305     0.2052
  37916  O        193.2140  188.6150  239.2850 O.3   8306  MOL8306    -0.4105
  37917  H        192.5190  188.2710  239.8850 H     8306  MOL8306     0.2052
  37918  H        193.8540  187.8800  239.0990 H     8306  MOL8306     0.2052
  37919  O        120.7210   37.9430   36.6180 O.3   8307  MOL8307    -0.4105
  37920  H        121.5270   38.3770   36.9660 H     8307  MOL8307     0.2052
  37921  H        120.9120   37.6250   35.6970 H     8307  MOL8307     0.2052
  37922  O         38.7060   39.1560  210.6960 O.3   8308  MOL8308    -0.4105
  37923  H         38.1060   38.4360  210.9820 H     8308  MOL8308     0.2052
  37924  H         39.5780   38.7520  210.4470 H     8308  MOL8308     0.2052
  37925  O        179.6110  198.1190   92.5930 O.3   8309  MOL8309    -0.4105
  37926  H        178.8600  198.6400   92.2400 H     8309  MOL8309     0.2052
  37927  H        180.4090  198.7080   92.6290 H     8309  MOL8309     0.2052
  37928  O        122.5720  163.6820  255.1930 O.3   8310  MOL8310    -0.4105
  37929  H        123.2420  162.9690  255.1300 H     8310  MOL8310     0.2052
  37930  H        123.0190  164.5450  254.9950 H     8310  MOL8310     0.2052
  37931  O        132.2510   41.6120  248.4460 O.3   8311  MOL8311    -0.4105
  37932  H        132.1110   41.1200  249.2820 H     8311  MOL8311     0.2052
  37933  H        131.8640   42.5200  248.5520 H     8311  MOL8311     0.2052
  37934  O         30.5740  103.9460  268.9100 O.3   8312  MOL8312    -0.4105
  37935  H         31.4060  103.5460  269.2400 H     8312  MOL8312     0.2052
  37936  H         29.8840  103.8540  269.6160 H     8312  MOL8312     0.2052
  37937  O         95.9870  155.2060  172.9570 O.3   8313  MOL8313    -0.4105
  37938  H         95.2550  155.6470  173.4380 H     8313  MOL8313     0.2052
  37939  H         96.0790  155.6380  172.0690 H     8313  MOL8313     0.2052
  37940  O        122.1190   87.6520  249.0350 O.3   8314  MOL8314    -0.4105
  37941  H        121.2590   88.1090  249.1470 H     8314  MOL8314     0.2052
  37942  H        122.8230   88.3410  248.9170 H     8314  MOL8314     0.2052
  37943  O        187.1070  195.7870   22.5960 O.3   8315  MOL8315    -0.4105
  37944  H        186.9560  194.8270   22.4660 H     8315  MOL8315     0.2052
  37945  H        187.9910  196.0170   22.2090 H     8315  MOL8315     0.2052
  37946  O        179.4360  158.5750  269.5140 O.3   8316  MOL8316    -0.4105
  37947  H        178.8410  158.1850  268.8400 H     8316  MOL8316     0.2052
  37948  H        178.9140  159.2260  270.0510 H     8316  MOL8316     0.2052
  37949  O         28.3060  178.7140  281.3580 O.3   8317  MOL8317    -0.4105
  37950  H         27.3800  178.4000  281.3010 H     8317  MOL8317     0.2052
  37951  H         28.3310  179.6610  281.0630 H     8317  MOL8317     0.2052
  37952  O        118.6970   18.2680  141.0510 O.3   8318  MOL8318    -0.4105
  37953  H        118.0510   17.7390  140.5380 H     8318  MOL8318     0.2052
  37954  H        118.6800   19.1980  140.7060 H     8318  MOL8318     0.2052
  37955  O        193.9700   10.9230   11.9830 O.3   8319  MOL8319    -0.4105
  37956  H        193.6400   11.5820   12.6290 H     8319  MOL8319     0.2052
  37957  H        193.6680   10.0240   12.2740 H     8319  MOL8319     0.2052
  37958  O         97.1400  164.7980  269.1440 O.3   8320  MOL8320    -0.4105
  37959  H         98.0980  164.6320  269.2610 H     8320  MOL8320     0.2052
  37960  H         96.6450  163.9990  269.4630 H     8320  MOL8320     0.2052
  37961  O        151.6590   89.4140   43.0230 O.3   8321  MOL8321    -0.4105
  37962  H        150.8330   89.3790   42.4980 H     8321  MOL8321     0.2052
  37963  H        151.6470   90.2450   43.5650 H     8321  MOL8321     0.2052
  37964  O        161.0430  172.9670   66.5840 O.3   8322  MOL8322    -0.4105
  37965  H        161.0690  172.1270   66.0800 H     8322  MOL8322     0.2052
  37966  H        160.3100  172.9070   67.2500 H     8322  MOL8322     0.2052
  37967  O        195.3200  174.2290  223.5420 O.3   8323  MOL8323    -0.4105
  37968  H        195.1350  174.4590  224.4770 H     8323  MOL8323     0.2052
  37969  H        196.1790  174.6520  223.2820 H     8323  MOL8323     0.2052
  37970  O         41.9710  124.3380   49.1300 O.3   8324  MOL8324    -0.4105
  37971  H         41.1700  124.8740   49.3040 H     8324  MOL8324     0.2052
  37972  H         42.7090  124.6920   49.6910 H     8324  MOL8324     0.2052
  37973  O        151.1700  156.8500   37.2720 O.3   8325  MOL8325    -0.4105
  37974  H        150.7180  156.2180   37.8690 H     8325  MOL8325     0.2052
  37975  H        152.1080  156.5510   37.1560 H     8325  MOL8325     0.2052
  37976  O        159.9600  195.9400  205.8150 O.3   8326  MOL8326    -0.4105
  37977  H        160.1310  196.9010  205.9080 H     8326  MOL8326     0.2052
  37978  H        160.1520  195.5050  206.6860 H     8326  MOL8326     0.2052
  37979  O         95.9550  139.5550  217.4600 O.3   8327  MOL8327    -0.4105
  37980  H         96.7210  140.1620  217.3920 H     8327  MOL8327     0.2052
  37981  H         96.2490  138.6510  217.1750 H     8327  MOL8327     0.2052
  37982  O         69.7340   22.2270  156.8550 O.3   8328  MOL8328    -0.4105
  37983  H         68.9860   22.7610  156.5150 H     8328  MOL8328     0.2052
  37984  H         70.5190   22.3820  156.2680 H     8328  MOL8328     0.2052
  37985  O        146.8070   23.4650    3.2510 O.3   8329  MOL8329    -0.4105
  37986  H        146.5270   23.5760    2.3190 H     8329  MOL8329     0.2052
  37987  H        146.5720   22.5440    3.5380 H     8329  MOL8329     0.2052
  37988  O        162.1340  152.7960   11.3190 O.3   8330  MOL8330    -0.4105
  37989  H        161.4800  152.2820   11.8370 H     8330  MOL8330     0.2052
  37990  H        163.0420  152.4800   11.5650 H     8330  MOL8330     0.2052
  37991  O          1.9510  164.2840  260.5150 O.3   8331  MOL8331    -0.4105
  37992  H          1.3030  164.3740  261.2440 H     8331  MOL8331     0.2052
  37993  H          2.6450  164.9840  260.6280 H     8331  MOL8331     0.2052
  37994  O         61.2430  162.0990  243.2690 O.3   8332  MOL8332    -0.4105
  37995  H         61.9840  162.4590  242.7390 H     8332  MOL8332     0.2052
  37996  H         61.6250  161.5590  244.0090 H     8332  MOL8332     0.2052
  37997  O         66.5390  114.6300  209.8910 O.3   8333  MOL8333    -0.4105
  37998  H         66.6420  115.4480  210.4200 H     8333  MOL8333     0.2052
  37999  H         65.5740  114.4020  209.8550 H     8333  MOL8333     0.2052
  38000  O         20.3390  118.6490   91.7210 O.3   8334  MOL8334    -0.4105
  38001  H         20.8340  117.8150   91.5820 H     8334  MOL8334     0.2052
  38002  H         19.5550  118.4520   92.2970 H     8334  MOL8334     0.2052
  38003  O         72.7200   11.1730   83.2700 O.3   8335  MOL8335    -0.4105
  38004  H         73.2260   11.8820   82.8210 H     8335  MOL8335     0.2052
  38005  H         72.5760   10.4360   82.6220 H     8335  MOL8335     0.2052
  38006  O        176.0890  116.1910  170.2380 O.3   8336  MOL8336    -0.4105
  38007  H        175.5970  117.0090  170.0160 H     8336  MOL8336     0.2052
  38008  H        175.4340  115.5050  170.5280 H     8336  MOL8336     0.2052
  38009  O         95.6700  199.0070   74.1910 O.3   8337  MOL8337    -0.4105
  38010  H         96.1310  199.8490   74.3900 H     8337  MOL8337     0.2052
  38011  H         95.3650  198.6100   75.0480 H     8337  MOL8337     0.2052
  38012  O         67.0670   20.4650  230.2860 O.3   8338  MOL8338    -0.4105
  38013  H         67.5710   20.3600  229.4520 H     8338  MOL8338     0.2052
  38014  H         67.7110   20.6650  231.0140 H     8338  MOL8338     0.2052
  38015  O         16.9050  180.8020   68.0940 O.3   8339  MOL8339    -0.4105
  38016  H         17.5980  181.4950   68.1060 H     8339  MOL8339     0.2052
  38017  H         16.0200  181.2480   68.0520 H     8339  MOL8339     0.2052
  38018  O         86.7580  164.3410   38.5240 O.3   8340  MOL8340    -0.4105
  38019  H         87.5440  164.5550   39.0690 H     8340  MOL8340     0.2052
  38020  H         86.5850  163.3670   38.5970 H     8340  MOL8340     0.2052
  38021  O         34.2070  141.9690  248.1580 O.3   8341  MOL8341    -0.4105
  38022  H         33.8350  141.0680  248.2540 H     8341  MOL8341     0.2052
  38023  H         33.6250  142.6010  248.6540 H     8341  MOL8341     0.2052
  38024  O         60.6520  174.4560  276.5970 O.3   8342  MOL8342    -0.4105
  38025  H         60.9970  175.3070  276.2540 H     8342  MOL8342     0.2052
  38026  H         61.4130  173.8250  276.6840 H     8342  MOL8342     0.2052
  38027  O         52.0870  146.6070  238.1820 O.3   8343  MOL8343    -0.4105
  38028  H         51.9510  147.3320  237.5360 H     8343  MOL8343     0.2052
  38029  H         52.7250  146.9220  238.8730 H     8343  MOL8343     0.2052
  38030  O         94.3890   57.0250   59.1230 O.3   8344  MOL8344    -0.4105
  38031  H         94.2200   57.9820   58.9980 H     8344  MOL8344     0.2052
  38032  H         93.5420   56.5360   58.9560 H     8344  MOL8344     0.2052
  38033  O        194.9730  148.1040  174.6130 O.3   8345  MOL8345    -0.4105
  38034  H        194.0240  147.8640  174.6750 H     8345  MOL8345     0.2052
  38035  H        195.0350  149.0660  174.3760 H     8345  MOL8345     0.2052
  38036  O         32.7990   91.1330   61.8090 O.3   8346  MOL8346    -0.4105
  38037  H         32.6450   91.9820   62.2740 H     8346  MOL8346     0.2052
  38038  H         32.0980   91.0280   61.1150 H     8346  MOL8346     0.2052
  38039  O        138.6560   83.5380   68.9660 O.3   8347  MOL8347    -0.4105
  38040  H        139.3900   83.9850   68.4940 H     8347  MOL8347     0.2052
  38041  H        139.0370   82.7910   69.4970 H     8347  MOL8347     0.2052
  38042  O        147.0740    3.9570   25.5310 O.3   8348  MOL8348    -0.4105
  38043  H        146.6620    4.0840   26.4110 H     8348  MOL8348     0.2052
  38044  H        147.1840    2.9830   25.3770 H     8348  MOL8348     0.2052
  38045  O         69.8670    0.4860  189.1420 O.3   8349  MOL8349    -0.4105
  38046  H         69.0800    0.5570  189.7220 H     8349  MOL8349     0.2052
  38047  H         70.6000    1.0190  189.5460 H     8349  MOL8349     0.2052
  38048  O        100.7970   55.0760   62.7220 O.3   8350  MOL8350    -0.4105
  38049  H        101.3200   55.6620   62.1350 H     8350  MOL8350     0.2052
  38050  H         99.9370   55.5270   62.9250 H     8350  MOL8350     0.2052
  38051  O         50.7590  134.0450  254.0890 O.3   8351  MOL8351    -0.4105
  38052  H         49.8240  134.3230  254.1890 H     8351  MOL8351     0.2052
  38053  H         51.2990  134.8480  253.8690 H     8351  MOL8351     0.2052
  38054  O          1.5030  114.4090  239.0660 O.3   8352  MOL8352    -0.4105
  38055  H          1.4100  115.0840  239.7710 H     8352  MOL8352     0.2052
  38056  H          1.8870  114.8490  238.2640 H     8352  MOL8352     0.2052
  38057  O         83.0480   18.3610  178.7220 O.3   8353  MOL8353    -0.4105
  38058  H         84.0180   18.2340  178.6570 H     8353  MOL8353     0.2052
  38059  H         82.8690   19.3300  178.8350 H     8353  MOL8353     0.2052
  38060  O         81.1210  194.3080  142.2020 O.3   8354  MOL8354    -0.4105
  38061  H         81.9390  194.5240  142.6960 H     8354  MOL8354     0.2052
  38062  H         80.9470  195.0380  141.5530 H     8354  MOL8354     0.2052
  38063  O        155.1510   67.8350  242.5690 O.3   8355  MOL8355    -0.4105
  38064  H        155.7100   67.1120  242.2140 H     8355  MOL8355     0.2052
  38065  H        154.4170   68.0060  241.9240 H     8355  MOL8355     0.2052
  38066  O         66.6100  182.1670  234.0940 O.3   8356  MOL8356    -0.4105
  38067  H         67.4610  182.1250  233.6100 H     8356  MOL8356     0.2052
  38068  H         65.9110  182.4880  233.4670 H     8356  MOL8356     0.2052
  38069  O        115.5130  198.6290   88.5280 O.3   8357  MOL8357    -0.4105
  38070  H        115.9670  199.4980   88.5350 H     8357  MOL8357     0.2052
  38071  H        116.1870  197.9290   88.3270 H     8357  MOL8357     0.2052
  38072  O        164.6150  108.8200  241.5690 O.3   8358  MOL8358    -0.4105
  38073  H        165.3880  108.5470  242.1060 H     8358  MOL8358     0.2052
  38074  H        164.9500  109.2190  240.7250 H     8358  MOL8358     0.2052
  38075  O        143.2330   71.0550   25.9220 O.3   8359  MOL8359    -0.4105
  38076  H        143.0710   70.1130   26.1380 H     8359  MOL8359     0.2052
  38077  H        143.8760   71.4190   26.5840 H     8359  MOL8359     0.2052
  38078  O        133.1950  151.9910  190.8560 O.3   8360  MOL8360    -0.4105
  38079  H        133.0680  151.0230  190.9490 H     8360  MOL8360     0.2052
  38080  H        134.1670  152.1830  190.9100 H     8360  MOL8360     0.2052
  38081  O         70.1790   59.3760  193.3680 O.3   8361  MOL8361    -0.4105
  38082  H         70.5880   60.2320  193.1210 H     8361  MOL8361     0.2052
  38083  H         70.2050   59.2930  194.3570 H     8361  MOL8361     0.2052
  38084  O         47.7390   27.2700  133.2410 O.3   8362  MOL8362    -0.4105
  38085  H         48.4790   27.0000  133.8230 H     8362  MOL8362     0.2052
  38086  H         47.1220   27.8420  133.7670 H     8362  MOL8362     0.2052
  38087  O        173.7830  166.6080  118.8270 O.3   8363  MOL8363    -0.4105
  38088  H        173.1130  166.5010  119.5340 H     8363  MOL8363     0.2052
  38089  H        173.9580  167.5780  118.7110 H     8363  MOL8363     0.2052
  38090  O        199.3870  193.3540  284.8000 O.3   8364  MOL8364    -0.4105
  38091  H        198.4660  193.6880  284.7860 H     8364  MOL8364     0.2052
  38092  H        200.0000  194.1330  284.8360 H     8364  MOL8364     0.2052
  38093  O         39.0530   26.0550  154.9890 O.3   8365  MOL8365    -0.4105
  38094  H         39.9760   26.3610  154.8680 H     8365  MOL8365     0.2052
  38095  H         38.4670   26.8530  155.0530 H     8365  MOL8365     0.2052
  38096  O         68.5360  183.4900  282.5160 O.3   8366  MOL8366    -0.4105
  38097  H         67.6090  183.4070  282.2070 H     8366  MOL8366     0.2052
  38098  H         68.6630  184.4080  282.8720 H     8366  MOL8366     0.2052
  38099  O        101.6920  173.6270  169.8000 O.3   8367  MOL8367    -0.4105
  38100  H        101.5530  174.5500  170.0990 H     8367  MOL8367     0.2052
  38101  H        100.9270  173.0800  170.1180 H     8367  MOL8367     0.2052
  38102  O         55.3790  163.0780  278.8990 O.3   8368  MOL8368    -0.4105
  38103  H         55.7440  162.1950  278.6820 H     8368  MOL8368     0.2052
  38104  H         56.0400  163.7640  278.6230 H     8368  MOL8368     0.2052
  38105  O        153.7450  142.6710  206.8690 O.3   8369  MOL8369    -0.4105
  38106  H        154.7090  142.5880  206.7140 H     8369  MOL8369     0.2052
  38107  H        153.3480  143.1560  206.1000 H     8369  MOL8369     0.2052
  38108  O        106.8160   55.9370  177.6470 O.3   8370  MOL8370    -0.4105
  38109  H        106.4960   55.0810  177.2920 H     8370  MOL8370     0.2052
  38110  H        106.5080   56.0170  178.5870 H     8370  MOL8370     0.2052
  38111  O         35.7160   19.0710  190.3540 O.3   8371  MOL8371    -0.4105
  38112  H         36.2080   18.2420  190.1780 H     8371  MOL8371     0.2052
  38113  H         34.7550   18.8460  190.4560 H     8371  MOL8371     0.2052
  38114  O        104.1050  159.0640   54.1940 O.3   8372  MOL8372    -0.4105
  38115  H        104.7870  159.4360   54.7920 H     8372  MOL8372     0.2052
  38116  H        104.5290  158.3560   53.6420 H     8372  MOL8372     0.2052
  38117  O        187.4090  186.6920  261.0290 O.3   8373  MOL8373    -0.4105
  38118  H        188.3340  186.7830  261.3370 H     8373  MOL8373     0.2052
  38119  H        186.8060  186.9620  261.7700 H     8373  MOL8373     0.2052
  38120  O         34.6340    6.8330   87.5900 O.3   8374  MOL8374    -0.4105
  38121  H         34.1730    7.4400   88.2060 H     8374  MOL8374     0.2052
  38122  H         33.9770    6.1670   87.2600 H     8374  MOL8374     0.2052
  38123  O        182.1420  112.4440  275.4870 O.3   8375  MOL8375    -0.4105
  38124  H        183.0490  112.2060  275.7700 H     8375  MOL8375     0.2052
  38125  H        182.0750  112.3060  274.5070 H     8375  MOL8375     0.2052
  38126  O        122.7880  160.6740  138.5830 O.3   8376  MOL8376    -0.4105
  38127  H        123.5980  160.1500  138.4120 H     8376  MOL8376     0.2052
  38128  H        122.0010  160.0850  138.4460 H     8376  MOL8376     0.2052
  38129  O        169.7600  104.7280  204.8780 O.3   8377  MOL8377    -0.4105
  38130  H        168.8740  104.3470  205.0550 H     8377  MOL8377     0.2052
  38131  H        170.0080  104.5140  203.9410 H     8377  MOL8377     0.2052
  38132  O         82.7230   56.4800   58.4670 O.3   8378  MOL8378    -0.4105
  38133  H         82.4280   57.3100   58.8960 H     8378  MOL8378     0.2052
  38134  H         83.2680   56.7170   57.6730 H     8378  MOL8378     0.2052
  38135  O         99.4950  182.8090  129.9210 O.3   8379  MOL8379    -0.4105
  38136  H         99.9500  182.2740  129.2370 H     8379  MOL8379     0.2052
  38137  H         99.9360  183.6970  129.9640 H     8379  MOL8379     0.2052
  38138  O          7.8290   16.8280  219.5390 O.3   8380  MOL8380    -0.4105
  38139  H          8.1880   16.2570  218.8270 H     8380  MOL8380     0.2052
  38140  H          8.3300   17.6850  219.5320 H     8380  MOL8380     0.2052
  38141  O          3.4290  108.7020  189.7580 O.3   8381  MOL8381    -0.4105
  38142  H          4.1920  108.4840  189.1830 H     8381  MOL8381     0.2052
  38143  H          2.8200  109.3010  189.2520 H     8381  MOL8381     0.2052
  38144  O        118.9040  127.8330  281.9320 O.3   8382  MOL8382    -0.4105
  38145  H        119.8520  128.0800  281.9190 H     8382  MOL8382     0.2052
  38146  H        118.3660  128.6670  281.9350 H     8382  MOL8382     0.2052
  38147  O        161.0860   49.8780   23.9330 O.3   8383  MOL8383    -0.4105
  38148  H        161.6090   50.3360   23.2420 H     8383  MOL8383     0.2052
  38149  H        160.1420   50.1710   23.8540 H     8383  MOL8383     0.2052
  38150  O         50.9230   21.7300  146.5540 O.3   8384  MOL8384    -0.4105
  38151  H         50.3610   20.9500  146.7470 H     8384  MOL8384     0.2052
  38152  H         51.7410   21.4150  146.0890 H     8384  MOL8384     0.2052
  38153  O         43.9880  126.8820  231.8000 O.3   8385  MOL8385    -0.4105
  38154  H         44.3010  127.7750  231.5460 H     8385  MOL8385     0.2052
  38155  H         43.0040  126.9210  231.9210 H     8385  MOL8385     0.2052
  38156  O        144.3090   12.4740   13.3980 O.3   8386  MOL8386    -0.4105
  38157  H        144.6580   13.2630   13.8620 H     8386  MOL8386     0.2052
  38158  H        143.3730   12.6610   13.1280 H     8386  MOL8386     0.2052
  38159  O        184.2750   60.2000  193.1380 O.3   8387  MOL8387    -0.4105
  38160  H        183.8520   59.3410  193.3460 H     8387  MOL8387     0.2052
  38161  H        184.3060   60.3010  192.1520 H     8387  MOL8387     0.2052
  38162  O         69.5700   55.0190  188.8480 O.3   8388  MOL8388    -0.4105
  38163  H         69.4200   54.2300  189.4100 H     8388  MOL8388     0.2052
  38164  H         70.2320   55.6030  189.3020 H     8388  MOL8388     0.2052
  38165  O         34.6390  169.4370   88.5570 O.3   8389  MOL8389    -0.4105
  38166  H         35.0860  170.2960   88.7090 H     8389  MOL8389     0.2052
  38167  H         33.6660  169.6060   88.4600 H     8389  MOL8389     0.2052
  38168  O        152.6600   39.5960  253.2260 O.3   8390  MOL8390    -0.4105
  38169  H        152.1270   39.4370  254.0320 H     8390  MOL8390     0.2052
  38170  H        152.0380   39.7310  252.4640 H     8390  MOL8390     0.2052
  38171  O          3.3970  121.3530  295.8440 O.3   8391  MOL8391    -0.4105
  38172  H          3.4340  122.1070  296.4690 H     8391  MOL8391     0.2052
  38173  H          2.6530  120.7580  296.1190 H     8391  MOL8391     0.2052
  38174  O         47.9930  166.0150  127.0600 O.3   8392  MOL8392    -0.4105
  38175  H         47.8930  166.5030  126.2160 H     8392  MOL8392     0.2052
  38176  H         48.4040  166.6260  127.7250 H     8392  MOL8392     0.2052
  38177  O         31.4780  142.0890  272.9480 O.3   8393  MOL8393    -0.4105
  38178  H         32.2840  142.6480  272.9550 H     8393  MOL8393     0.2052
  38179  H         30.6870  142.6840  273.0160 H     8393  MOL8393     0.2052
  38180  O        125.6530   64.3790  256.2410 O.3   8394  MOL8394    -0.4105
  38181  H        124.8670   63.8060  256.3600 H     8394  MOL8394     0.2052
  38182  H        125.3390   65.2950  256.0260 H     8394  MOL8394     0.2052
  38183  O         73.8450   37.3820   46.5650 O.3   8395  MOL8395    -0.4105
  38184  H         73.8770   38.3550   46.4540 H     8395  MOL8395     0.2052
  38185  H         73.2830   37.0050   45.8400 H     8395  MOL8395     0.2052
  38186  O         95.9020  146.1530  255.8740 O.3   8396  MOL8396    -0.4105
  38187  H         95.2250  146.3060  255.1820 H     8396  MOL8396     0.2052
  38188  H         95.6890  145.3000  256.3340 H     8396  MOL8396     0.2052
  38189  O         99.2160   20.8280  216.2860 O.3   8397  MOL8397    -0.4105
  38190  H         98.4010   21.0320  216.7920 H     8397  MOL8397     0.2052
  38191  H         98.9950   20.1420  215.6050 H     8397  MOL8397     0.2052
  38192  O         11.3950   13.7800  237.9460 O.3   8398  MOL8398    -0.4105
  38193  H         10.5990   14.3500  237.9850 H     8398  MOL8398     0.2052
  38194  H         11.0990   12.8330  237.9670 H     8398  MOL8398     0.2052
  38195  O        107.4370  152.1410   88.3070 O.3   8399  MOL8399    -0.4105
  38196  H        108.1730  151.9820   88.9350 H     8399  MOL8399     0.2052
  38197  H        106.8730  152.8730   88.6690 H     8399  MOL8399     0.2052
  38198  O        148.1780   21.9660  262.6490 O.3   8400  MOL8400    -0.4105
  38199  H        147.4380   22.1040  262.0220 H     8400  MOL8400     0.2052
  38200  H        148.9550   22.4980  262.3340 H     8400  MOL8400     0.2052
  38201  O         96.1610   22.6750  237.4820 O.3   8401  MOL8401    -0.4105
  38202  H         96.9240   22.0670  237.3960 H     8401  MOL8401     0.2052
  38203  H         95.3960   22.2850  236.9840 H     8401  MOL8401     0.2052
  38204  O         29.7600   14.7710  169.0650 O.3   8402  MOL8402    -0.4105
  38205  H         29.5640   14.9220  170.0130 H     8402  MOL8402     0.2052
  38206  H         30.4450   15.4300  168.7800 H     8402  MOL8402     0.2052
  38207  O         93.3130   52.1780  233.8760 O.3   8403  MOL8403    -0.4105
  38208  H         93.8350   51.4340  233.5100 H     8403  MOL8403     0.2052
  38209  H         93.9160   52.7390  234.4290 H     8403  MOL8403     0.2052
  38210  O        133.4610   36.8220   86.0490 O.3   8404  MOL8404    -0.4105
  38211  H        133.4800   36.1070   86.7180 H     8404  MOL8404     0.2052
  38212  H        134.3930   37.1190   85.8850 H     8404  MOL8404     0.2052
  38213  O        122.3980   35.0600  146.9820 O.3   8405  MOL8405    -0.4105
  38214  H        121.4590   34.9880  146.7110 H     8405  MOL8405     0.2052
  38215  H        122.6240   36.0220  147.0690 H     8405  MOL8405     0.2052
  38216  O        125.1560   97.5460    4.5790 O.3   8406  MOL8406    -0.4105
  38217  H        124.3340   97.6200    5.1080 H     8406  MOL8406     0.2052
  38218  H        125.5390   98.4550    4.4720 H     8406  MOL8406     0.2052
  38219  O         97.1760  155.9020  149.2050 O.3   8407  MOL8407    -0.4105
  38220  H         97.2730  156.0170  150.1740 H     8407  MOL8407     0.2052
  38221  H         97.7200  155.1190  148.9300 H     8407  MOL8407     0.2052
  38222  O        103.5040   60.3300   72.9680 O.3   8408  MOL8408    -0.4105
  38223  H        104.4530   60.5570   73.0640 H     8408  MOL8408     0.2052
  38224  H        103.0200   61.1410   72.6650 H     8408  MOL8408     0.2052
  38225  O         77.4610  172.7610   21.1090 O.3   8409  MOL8409    -0.4105
  38226  H         78.2900  172.9000   21.6120 H     8409  MOL8409     0.2052
  38227  H         77.4650  171.8350   20.7530 H     8409  MOL8409     0.2052
  38228  O         42.8240  120.5230   47.7560 O.3   8410  MOL8410    -0.4105
  38229  H         42.5720  120.6180   46.8140 H     8410  MOL8410     0.2052
  38230  H         42.1840  119.8980   48.1870 H     8410  MOL8410     0.2052
  38231  O        159.8580  110.8430  212.7550 O.3   8411  MOL8411    -0.4105
  38232  H        160.3130  109.9760  212.7450 H     8411  MOL8411     0.2052
  38233  H        158.8810  110.6800  212.8240 H     8411  MOL8411     0.2052
  38234  O        126.5110   34.5520  132.3760 O.3   8412  MOL8412    -0.4105
  38235  H        126.4760   33.5790  132.4930 H     8412  MOL8412     0.2052
  38236  H        127.2590   34.9040  132.9240 H     8412  MOL8412     0.2052
  38237  O         74.9020  197.2010  157.6290 O.3   8413  MOL8413    -0.4105
  38238  H         75.3910  197.3980  156.8020 H     8413  MOL8413     0.2052
  38239  H         75.2230  197.8210  158.3340 H     8413  MOL8413     0.2052
  38240  O         57.5580  177.1690   15.7810 O.3   8414  MOL8414    -0.4105
  38241  H         56.5970  177.1850   15.9730 H     8414  MOL8414     0.2052
  38242  H         57.8720  176.2300   15.8440 H     8414  MOL8414     0.2052
  38243  O         13.4460  184.5470  142.3130 O.3   8415  MOL8415    -0.4105
  38244  H         12.8900  183.7430  142.2440 H     8415  MOL8415     0.2052
  38245  H         14.3980  184.2660  142.3140 H     8415  MOL8415     0.2052
  38246  O         56.8460  190.2740  265.3870 O.3   8416  MOL8416    -0.4105
  38247  H         56.2530  190.6860  264.7240 H     8416  MOL8416     0.2052
  38248  H         56.3490  189.5410  265.8340 H     8416  MOL8416     0.2052
  38249  O          2.4050  196.6480   82.8180 O.3   8417  MOL8417    -0.4105
  38250  H          2.1020  197.5790   82.7840 H     8417  MOL8417     0.2052
  38251  H          3.3930  196.6460   82.9190 H     8417  MOL8417     0.2052
  38252  O         39.5600  189.7310  218.4890 O.3   8418  MOL8418    -0.4105
  38253  H         39.4310  188.7610  218.4350 H     8418  MOL8418     0.2052
  38254  H         40.3650  189.9660  217.9590 H     8418  MOL8418     0.2052
  38255  O         80.5150   13.1320  105.0930 O.3   8419  MOL8419    -0.4105
  38256  H         80.7860   14.0730  105.1330 H     8419  MOL8419     0.2052
  38257  H         81.3350   12.5740  105.0460 H     8419  MOL8419     0.2052
  38258  O        165.9660   82.1430  199.2330 O.3   8420  MOL8420    -0.4105
  38259  H        166.8190   82.3860  198.8160 H     8420  MOL8420     0.2052
  38260  H        166.1580   81.7320  200.1160 H     8420  MOL8420     0.2052
  38261  O         67.3110  173.8410  143.0480 O.3   8421  MOL8421    -0.4105
  38262  H         68.1070  174.2220  142.6220 H     8421  MOL8421     0.2052
  38263  H         66.7840  174.5830  143.4420 H     8421  MOL8421     0.2052
  38264  O         94.1120   63.5330  234.6250 O.3   8422  MOL8422    -0.4105
  38265  H         93.1580   63.3450  234.5020 H     8422  MOL8422     0.2052
  38266  H         94.2250   64.5150  234.7170 H     8422  MOL8422     0.2052
  38267  O         25.7210   71.1400  184.6680 O.3   8423  MOL8423    -0.4105
  38268  H         26.2740   71.9470  184.7270 H     8423  MOL8423     0.2052
  38269  H         25.2940   71.1220  183.7730 H     8423  MOL8423     0.2052
  38270  O         52.0820  155.4520  202.0330 O.3   8424  MOL8424    -0.4105
  38271  H         52.0520  154.4720  202.0450 H     8424  MOL8424     0.2052
  38272  H         51.1510  155.7900  201.9860 H     8424  MOL8424     0.2052
  38273  O        107.1890  159.1830   64.3860 O.3   8425  MOL8425    -0.4105
  38274  H        106.2700  159.5230   64.3890 H     8425  MOL8425     0.2052
  38275  H        107.8070  159.9590   64.3640 H     8425  MOL8425     0.2052
  38276  O         98.5020  151.4690   64.6260 O.3   8426  MOL8426    -0.4105
  38277  H         98.8210  152.3880   64.7460 H     8426  MOL8426     0.2052
  38278  H         97.5210  151.4980   64.4760 H     8426  MOL8426     0.2052
  38279  O        181.7000   21.6150  271.3510 O.3   8427  MOL8427    -0.4105
  38280  H        182.3990   21.8180  272.0070 H     8427  MOL8427     0.2052
  38281  H        181.0250   22.3420  271.3800 H     8427  MOL8427     0.2052
  38282  O          1.1410  145.5920  103.8110 O.3   8428  MOL8428    -0.4105
  38283  H          1.3270  146.5520  103.7430 H     8428  MOL8428     0.2052
  38284  H          1.7980  145.1920  104.4370 H     8428  MOL8428     0.2052
  38285  O          1.6750  154.7610  296.5510 O.3   8429  MOL8429    -0.4105
  38286  H          1.2710  155.5660  296.1640 H     8429  MOL8429     0.2052
  38287  H          1.1270  153.9790  296.2810 H     8429  MOL8429     0.2052
  38288  O         21.4520    3.6110   48.4120 O.3   8430  MOL8430    -0.4105
  38289  H         20.5070    3.4820   48.1850 H     8430  MOL8430     0.2052
  38290  H         21.7320    4.5030   48.0780 H     8430  MOL8430     0.2052
  38291  O         66.4610   25.3820  201.6020 O.3   8431  MOL8431    -0.4105
  38292  H         66.3010   24.5430  202.0830 H     8431  MOL8431     0.2052
  38293  H         65.5900   25.8420  201.4840 H     8431  MOL8431     0.2052
  38294  O         82.3090   90.5750   24.5020 O.3   8432  MOL8432    -0.4105
  38295  H         81.8550   90.9390   23.7130 H     8432  MOL8432     0.2052
  38296  H         82.1740   89.5920   24.5120 H     8432  MOL8432     0.2052
  38297  O         10.3260  177.2160  162.4710 O.3   8433  MOL8433    -0.4105
  38298  H         11.1340  177.1260  161.9230 H     8433  MOL8433     0.2052
  38299  H         10.2900  178.1440  162.8200 H     8433  MOL8433     0.2052
  38300  O         15.0430  101.2090  177.8570 O.3   8434  MOL8434    -0.4105
  38301  H         16.0120  101.1760  177.7110 H     8434  MOL8434     0.2052
  38302  H         14.8200  100.5910  178.6010 H     8434  MOL8434     0.2052
  38303  O          5.4470  131.2160  129.9980 O.3   8435  MOL8435    -0.4105
  38304  H          5.9600  131.4150  129.1870 H     8435  MOL8435     0.2052
  38305  H          5.5660  130.2540  130.2120 H     8435  MOL8435     0.2052
  38306  O         20.9130    0.5180  136.7500 O.3   8436  MOL8436    -0.4105
  38307  H         21.2120    1.2140  136.1290 H     8436  MOL8436     0.2052
  38308  H         20.7310    0.9430  137.6280 H     8436  MOL8436     0.2052
  38309  O         39.2230   94.2770    4.0730 O.3   8437  MOL8437    -0.4105
  38310  H         39.2080   94.3660    3.0970 H     8437  MOL8437     0.2052
  38311  H         38.4160   93.7720    4.3510 H     8437  MOL8437     0.2052
  38312  O        148.0000  122.6840  293.3820 O.3   8438  MOL8438    -0.4105
  38313  H        147.9960  123.3930  292.7070 H     8438  MOL8438     0.2052
  38314  H        147.0990  122.6430  293.7950 H     8438  MOL8438     0.2052
  38315  O         18.2690  109.8230  191.7490 O.3   8439  MOL8439    -0.4105
  38316  H         19.1910  109.7910  192.0790 H     8439  MOL8439     0.2052
  38317  H         17.8660  110.6830  192.0350 H     8439  MOL8439     0.2052
  38318  O        135.6990  138.8480  283.3920 O.3   8440  MOL8440    -0.4105
  38319  H        135.6440  139.5790  282.7420 H     8440  MOL8440     0.2052
  38320  H        135.0490  139.0300  284.1200 H     8440  MOL8440     0.2052
  38321  O        191.7050   94.4580  293.6170 O.3   8441  MOL8441    -0.4105
  38322  H        190.8790   93.9440  293.4980 H     8441  MOL8441     0.2052
  38323  H        192.0920   94.2240  294.5000 H     8441  MOL8441     0.2052
  38324  O        177.4650  174.3470  203.4790 O.3   8442  MOL8442    -0.4105
  38325  H        176.5950  174.1280  203.8730 H     8442  MOL8442     0.2052
  38326  H        177.8370  173.5230  203.0700 H     8442  MOL8442     0.2052
  38327  O        102.6090   75.1270  175.9650 O.3   8443  MOL8443    -0.4105
  38328  H        101.7620   75.2150  176.4490 H     8443  MOL8443     0.2052
  38329  H        103.1990   75.8780  176.2330 H     8443  MOL8443     0.2052
  38330  O         44.9240  160.0970  159.4570 O.3   8444  MOL8444    -0.4105
  38331  H         45.8950  160.2190  159.5120 H     8444  MOL8444     0.2052
  38332  H         44.4990  160.9940  159.4550 H     8444  MOL8444     0.2052
  38333  O         33.1760  123.5900  120.1630 O.3   8445  MOL8445    -0.4105
  38334  H         32.4720  123.9800  119.6040 H     8445  MOL8445     0.2052
  38335  H         32.7480  122.9980  120.8340 H     8445  MOL8445     0.2052
  38336  O         80.1760   61.8410  280.2360 O.3   8446  MOL8446    -0.4105
  38337  H         79.2290   62.0790  280.3160 H     8446  MOL8446     0.2052
  38338  H         80.7160   62.6550  280.4120 H     8446  MOL8446     0.2052
  38339  O         51.9530  165.7480   71.2270 O.3   8447  MOL8447    -0.4105
  38340  H         51.2870  165.9930   71.9030 H     8447  MOL8447     0.2052
  38341  H         51.7770  164.8140   70.9420 H     8447  MOL8447     0.2052
  38342  O        170.1900  195.3370  190.7930 O.3   8448  MOL8448    -0.4105
  38343  H        170.9890  195.0580  190.2980 H     8448  MOL8448     0.2052
  38344  H        170.1080  196.3230  190.7200 H     8448  MOL8448     0.2052
  38345  O          3.3600  103.8960   88.5030 O.3   8449  MOL8449    -0.4105
  38346  H          3.2810  104.2780   87.6040 H     8449  MOL8449     0.2052
  38347  H          2.5850  103.2950   88.6540 H     8449  MOL8449     0.2052
  38348  O         78.5910  148.3940  186.9160 O.3   8450  MOL8450    -0.4105
  38349  H         78.1630  149.2660  186.7900 H     8450  MOL8450     0.2052
  38350  H         79.5580  148.4900  186.7150 H     8450  MOL8450     0.2052
  38351  O         96.3630  187.4400    6.1820 O.3   8451  MOL8451    -0.4105
  38352  H         96.8960  186.7000    5.8240 H     8451  MOL8451     0.2052
  38353  H         95.6070  187.6070    5.5600 H     8451  MOL8451     0.2052
  38354  O        146.0060  180.0460  288.6970 O.3   8452  MOL8452    -0.4105
  38355  H        146.7820  179.4650  288.5510 H     8452  MOL8452     0.2052
  38356  H        145.8040  180.0570  289.6680 H     8452  MOL8452     0.2052
  38357  O         99.1040   64.4050    7.6040 O.3   8453  MOL8453    -0.4105
  38358  H         98.7300   65.2870    7.3970 H     8453  MOL8453     0.2052
  38359  H         98.3940   63.8600    8.0330 H     8453  MOL8453     0.2052
  38360  O         93.6580  137.1320  243.0770 O.3   8454  MOL8454    -0.4105
  38361  H         92.9160  137.1820  242.4390 H     8454  MOL8454     0.2052
  38362  H         93.6480  136.2310  243.4940 H     8454  MOL8454     0.2052
  38363  O        154.3590  153.8990  253.1430 O.3   8455  MOL8455    -0.4105
  38364  H        153.7450  153.1390  253.2120 H     8455  MOL8455     0.2052
  38365  H        153.8190  154.7320  253.1160 H     8455  MOL8455     0.2052
  38366  O        175.4960   41.5690   78.5030 O.3   8456  MOL8456    -0.4105
  38367  H        176.3840   41.9770   78.5740 H     8456  MOL8456     0.2052
  38368  H        175.6090   40.5840   78.4580 H     8456  MOL8456     0.2052
  38369  O        179.0010   93.1080  124.9430 O.3   8457  MOL8457    -0.4105
  38370  H        179.4060   92.4790  124.3090 H     8457  MOL8457     0.2052
  38371  H        179.4580   93.0040  125.8170 H     8457  MOL8457     0.2052
  38372  O        157.5830  131.1300    7.0080 O.3   8458  MOL8458    -0.4105
  38373  H        158.4050  131.6140    6.7820 H     8458  MOL8458     0.2052
  38374  H        156.8110  131.7250    6.8200 H     8458  MOL8458     0.2052
  38375  O        120.7950   48.2970   73.0680 O.3   8459  MOL8459    -0.4105
  38376  H        120.4290   49.1980   73.1890 H     8459  MOL8459     0.2052
  38377  H        121.5720   48.1920   73.6760 H     8459  MOL8459     0.2052
  38378  O         80.5860   87.7410   12.3710 O.3   8460  MOL8460    -0.4105
  38379  H         80.1110   88.5740   12.1680 H     8460  MOL8460     0.2052
  38380  H         81.1520   87.5080   11.5900 H     8460  MOL8460     0.2052
  38381  O        125.6250  127.5390  195.2220 O.3   8461  MOL8461    -0.4105
  38382  H        125.1130  126.7930  195.6010 H     8461  MOL8461     0.2052
  38383  H        126.2240  127.1780  194.5180 H     8461  MOL8461     0.2052
  38384  O          6.4820  117.5100  123.0440 O.3   8462  MOL8462    -0.4105
  38385  H          6.1120  116.8590  123.6770 H     8462  MOL8462     0.2052
  38386  H          5.9280  117.4920  122.2210 H     8462  MOL8462     0.2052
  38387  O        106.8030    5.3020   76.0430 O.3   8463  MOL8463    -0.4105
  38388  H        107.5330    5.9520   76.1200 H     8463  MOL8463     0.2052
  38389  H        107.1960    4.3910   76.0580 H     8463  MOL8463     0.2052
  38390  O         62.6420  189.5770  197.7050 O.3   8464  MOL8464    -0.4105
  38391  H         62.8230  188.7860  198.2550 H     8464  MOL8464     0.2052
  38392  H         62.1830  189.2800  196.8770 H     8464  MOL8464     0.2052
  38393  O         65.3050  161.8380  154.0390 O.3   8465  MOL8465    -0.4105
  38394  H         66.1990  161.4690  154.1970 H     8465  MOL8465     0.2052
  38395  H         65.3630  162.8270  154.0950 H     8465  MOL8465     0.2052
  38396  O         26.8540   53.8820  150.0100 O.3   8466  MOL8466    -0.4105
  38397  H         27.3960   54.1360  150.7860 H     8466  MOL8466     0.2052
  38398  H         25.9090   53.8050  150.3020 H     8466  MOL8466     0.2052
  38399  O          9.6250    3.2550   30.6590 O.3   8467  MOL8467    -0.4105
  38400  H          8.7970    2.7310   30.6390 H     8467  MOL8467     0.2052
  38401  H          9.3890    4.2000   30.8480 H     8467  MOL8467     0.2052
  38402  O        192.2900  131.2200  177.6220 O.3   8468  MOL8468    -0.4105
  38403  H        192.1560  130.2500  177.6030 H     8468  MOL8468     0.2052
  38404  H        193.2500  131.3970  177.7990 H     8468  MOL8468     0.2052
  38405  O         90.0140   90.3580  177.1850 O.3   8469  MOL8469    -0.4105
  38406  H         90.7330   90.9790  176.9430 H     8469  MOL8469     0.2052
  38407  H         89.2550   90.8860  177.5440 H     8469  MOL8469     0.2052
  38408  O        170.0620  182.8370   27.5740 O.3   8470  MOL8470    -0.4105
  38409  H        170.5750  183.6200   27.2840 H     8470  MOL8470     0.2052
  38410  H        169.1830  183.1500   27.9130 H     8470  MOL8470     0.2052
  38411  O         58.6250   92.0320   32.2530 O.3   8471  MOL8471    -0.4105
  38412  H         58.9210   91.1010   32.3240 H     8471  MOL8471     0.2052
  38413  H         57.6380   92.0370   32.1500 H     8471  MOL8471     0.2052
  38414  O        191.0660  155.7500  123.4740 O.3   8472  MOL8472    -0.4105
  38415  H        190.9130  155.6940  122.5080 H     8472  MOL8472     0.2052
  38416  H        190.6090  156.5630  123.8140 H     8472  MOL8472     0.2052
  38417  O         40.7440  175.0890   77.2290 O.3   8473  MOL8473    -0.4105
  38418  H         41.6240  175.2660   77.6220 H     8473  MOL8473     0.2052
  38419  H         40.7740  174.2000   76.7880 H     8473  MOL8473     0.2052
  38420  O        184.0140   77.5370   10.1960 O.3   8474  MOL8474    -0.4105
  38421  H        183.8940   76.6790    9.7390 H     8474  MOL8474     0.2052
  38422  H        184.9830   77.7490   10.2100 H     8474  MOL8474     0.2052
  38423  O         80.0140  186.7080  163.9660 O.3   8475  MOL8475    -0.4105
  38424  H         80.0640  187.6780  163.8310 H     8475  MOL8475     0.2052
  38425  H         80.3500  186.2630  163.1450 H     8475  MOL8475     0.2052
  38426  O         89.0490   39.1330  139.4420 O.3   8476  MOL8476    -0.4105
  38427  H         89.5330   39.9210  139.1170 H     8476  MOL8476     0.2052
  38428  H         88.1870   39.4370  139.8300 H     8476  MOL8476     0.2052
  38429  O         89.6420   42.9160   73.0630 O.3   8477  MOL8477    -0.4105
  38430  H         90.1400   43.5530   73.6170 H     8477  MOL8477     0.2052
  38431  H         89.5800   42.0570   73.5560 H     8477  MOL8477     0.2052
  38432  O         30.7060   33.9880   69.2990 O.3   8478  MOL8478    -0.4105
  38433  H         30.9590   33.5700   70.1490 H     8478  MOL8478     0.2052
  38434  H         29.8720   33.5570   68.9770 H     8478  MOL8478     0.2052
  38435  O        173.5050   52.9210  187.7400 O.3   8479  MOL8479    -0.4105
  38436  H        173.8060   53.8510  187.8080 H     8479  MOL8479     0.2052
  38437  H        173.5290   52.6570  186.7840 H     8479  MOL8479     0.2052
  38438  O         46.7290   62.4350   30.6230 O.3   8480  MOL8480    -0.4105
  38439  H         45.9490   62.3090   30.0430 H     8480  MOL8480     0.2052
  38440  H         46.4650   62.2110   31.5520 H     8480  MOL8480     0.2052
  38441  O         78.9210  102.8950  209.5220 O.3   8481  MOL8481    -0.4105
  38442  H         78.1490  103.1520  208.9750 H     8481  MOL8481     0.2052
  38443  H         79.3200  103.7190  209.9020 H     8481  MOL8481     0.2052
  38444  O        106.9550   88.9910  193.4990 O.3   8482  MOL8482    -0.4105
  38445  H        106.0100   89.2510  193.5250 H     8482  MOL8482     0.2052
  38446  H        107.5050   89.8170  193.5320 H     8482  MOL8482     0.2052
  38447  O         55.0370  166.2360   63.1920 O.3   8483  MOL8483    -0.4105
  38448  H         55.8800  166.4280   62.7300 H     8483  MOL8483     0.2052
  38449  H         54.3570  165.9970   62.5090 H     8483  MOL8483     0.2052
  38450  O         34.7700  151.2890   31.0910 O.3   8484  MOL8484    -0.4105
  38451  H         34.2930  151.7640   31.8030 H     8484  MOL8484     0.2052
  38452  H         35.6770  151.6840   31.0090 H     8484  MOL8484     0.2052
  38453  O        188.0970  144.4410  196.7570 O.3   8485  MOL8485    -0.4105
  38454  H        187.4110  145.0590  196.4270 H     8485  MOL8485     0.2052
  38455  H        187.9450  144.2960  197.7270 H     8485  MOL8485     0.2052
  38456  O         37.0790   96.8570  290.3350 O.3   8486  MOL8486    -0.4105
  38457  H         36.7240   96.2580  289.6450 H     8486  MOL8486     0.2052
  38458  H         37.4100   96.3010  291.0870 H     8486  MOL8486     0.2052
  38459  O        154.6220  143.7300  166.0630 O.3   8487  MOL8487    -0.4105
  38460  H        155.5630  143.5760  166.2890 H     8487  MOL8487     0.2052
  38461  H        154.2530  144.3910  166.7050 H     8487  MOL8487     0.2052
  38462  O        192.5600  158.2530  262.4440 O.3   8488  MOL8488    -0.4105
  38463  H        192.6490  157.3260  262.1380 H     8488  MOL8488     0.2052
  38464  H        193.3820  158.7450  262.1870 H     8488  MOL8488     0.2052
  38465  O        170.4620  149.7080   79.1890 O.3   8489  MOL8489    -0.4105
  38466  H        170.8310  149.8760   80.0820 H     8489  MOL8489     0.2052
  38467  H        169.4730  149.7690   79.2450 H     8489  MOL8489     0.2052
  38468  O         17.0070   41.6760  210.7910 O.3   8490  MOL8490    -0.4105
  38469  H         16.2950   41.0890  211.1200 H     8490  MOL8490     0.2052
  38470  H         17.7420   41.1080  210.4430 H     8490  MOL8490     0.2052
  38471  O        119.2800   94.1430  225.9730 O.3   8491  MOL8491    -0.4105
  38472  H        119.4110   95.1130  225.9170 H     8491  MOL8491     0.2052
  38473  H        119.5380   93.8480  226.8850 H     8491  MOL8491     0.2052
  38474  O         94.4130  183.9550  167.3570 O.3   8492  MOL8492    -0.4105
  38475  H         94.9940  183.2910  167.7840 H     8492  MOL8492     0.2052
  38476  H         93.4790  183.6220  167.3970 H     8492  MOL8492     0.2052
  38477  O         42.9240  181.6140  180.7310 O.3   8493  MOL8493    -0.4105
  38478  H         43.1780  182.4830  181.1060 H     8493  MOL8493     0.2052
  38479  H         43.6930  180.9940  180.8360 H     8493  MOL8493     0.2052
  38480  O         36.1830  131.4780  268.3110 O.3   8494  MOL8494    -0.4105
  38481  H         36.6200  130.7570  268.8100 H     8494  MOL8494     0.2052
  38482  H         36.7210  131.6650  267.4990 H     8494  MOL8494     0.2052
  38483  O         77.2380  136.5020  262.9120 O.3   8495  MOL8495    -0.4105
  38484  H         78.1250  136.0920  262.9870 H     8495  MOL8495     0.2052
  38485  H         77.3550  137.4410  262.6110 H     8495  MOL8495     0.2052
  38486  O        104.0510   33.4250  152.2900 O.3   8496  MOL8496    -0.4105
  38487  H        103.1670   33.0010  152.3040 H     8496  MOL8496     0.2052
  38488  H        103.9220   34.4080  152.2490 H     8496  MOL8496     0.2052
  38489  O        129.0300  195.9410  175.1450 O.3   8497  MOL8497    -0.4105
  38490  H        128.6100  196.2430  175.9770 H     8497  MOL8497     0.2052
  38491  H        129.7330  195.2790  175.3750 H     8497  MOL8497     0.2052
  38492  O        193.1060   51.0010  126.8620 O.3   8498  MOL8498    -0.4105
  38493  H        193.3280   51.9550  126.8560 H     8498  MOL8498     0.2052
  38494  H        192.1180   50.9110  126.8500 H     8498  MOL8498     0.2052
  38495  O        147.6350   29.9890  264.1770 O.3   8499  MOL8499    -0.4105
  38496  H        146.8930   30.0380  263.5380 H     8499  MOL8499     0.2052
  38497  H        148.3210   30.6530  263.9080 H     8499  MOL8499     0.2052
  38498  O        155.8720  139.5930  183.7630 O.3   8500  MOL8500    -0.4105
  38499  H        156.8270  139.4980  183.9610 H     8500  MOL8500     0.2052
  38500  H        155.6420  138.9620  183.0320 H     8500  MOL8500     0.2052
  38501  O         95.1450  161.6200   42.3300 O.3   8501  MOL8501    -0.4105
  38502  H         95.2260  162.5460   42.0180 H     8501  MOL8501     0.2052
  38503  H         95.4860  161.0210   41.6160 H     8501  MOL8501     0.2052
  38504  O         56.9510   52.3680  266.2790 O.3   8502  MOL8502    -0.4105
  38505  H         56.9240   53.3320  266.1080 H     8502  MOL8502     0.2052
  38506  H         57.3200   52.2240  267.1890 H     8502  MOL8502     0.2052
  38507  O        101.9790  182.5710  102.6650 O.3   8503  MOL8503    -0.4105
  38508  H        101.4430  181.7990  102.3870 H     8503  MOL8503     0.2052
  38509  H        101.7100  183.3510  102.1130 H     8503  MOL8503     0.2052
  38510  O        103.5560  104.9130   16.6860 O.3   8504  MOL8504    -0.4105
  38511  H        103.0790  105.0650   15.8430 H     8504  MOL8504     0.2052
  38512  H        103.5710  105.7660   17.1920 H     8504  MOL8504     0.2052
  38513  O        158.5070   44.4160   69.0980 O.3   8505  MOL8505    -0.4105
  38514  H        157.5520   44.4290   68.8780 H     8505  MOL8505     0.2052
  38515  H        159.0210   44.5380   68.2580 H     8505  MOL8505     0.2052
  38516  O          3.4160   37.2690   10.1370 O.3   8506  MOL8506    -0.4105
  38517  H          2.5720   37.7510   10.0090 H     8506  MOL8506     0.2052
  38518  H          4.0710   37.6100    9.4740 H     8506  MOL8506     0.2052
  38519  O        164.8360  111.7640  266.6500 O.3   8507  MOL8507    -0.4105
  38520  H        164.9080  111.3450  267.5330 H     8507  MOL8507     0.2052
  38521  H        165.6650  111.5620  266.1420 H     8507  MOL8507     0.2052
  38522  O        107.7960  123.8870  260.0980 O.3   8508  MOL8508    -0.4105
  38523  H        106.9690  124.3550  260.3370 H     8508  MOL8508     0.2052
  38524  H        108.5450  124.5360  260.1470 H     8508  MOL8508     0.2052
  38525  O         99.2190   60.2000  224.7800 O.3   8509  MOL8509    -0.4105
  38526  H         99.6040   59.6330  225.4810 H     8509  MOL8509     0.2052
  38527  H         99.4110   59.7810  223.9020 H     8509  MOL8509     0.2052
  38528  O        158.6350   37.9680   77.6250 O.3   8510  MOL8510    -0.4105
  38529  H        157.6560   37.9710   77.5770 H     8510  MOL8510     0.2052
  38530  H        158.9410   37.0240   77.6390 H     8510  MOL8510     0.2052
  38531  O        147.0950   54.8270  130.7880 O.3   8511  MOL8511    -0.4105
  38532  H        147.3310   54.0430  130.2490 H     8511  MOL8511     0.2052
  38533  H        147.7960   55.5160  130.6570 H     8511  MOL8511     0.2052
  38534  O         74.7830   41.4320  252.8270 O.3   8512  MOL8512    -0.4105
  38535  H         75.0870   42.2050  253.3460 H     8512  MOL8512     0.2052
  38536  H         74.5940   41.7350  251.9010 H     8512  MOL8512     0.2052
  38537  O         31.6360   54.6810   90.7500 O.3   8513  MOL8513    -0.4105
  38538  H         32.2440   54.9780   90.0400 H     8513  MOL8513     0.2052
  38539  H         31.2630   53.8000   90.4890 H     8513  MOL8513     0.2052
  38540  O         18.5610  136.4740   15.7980 O.3   8514  MOL8514    -0.4105
  38541  H         18.2370  136.0030   16.5930 H     8514  MOL8514     0.2052
  38542  H         18.3640  137.4410   15.9070 H     8514  MOL8514     0.2052
  38543  O        139.0820   88.1930  173.1600 O.3   8515  MOL8515    -0.4105
  38544  H        139.4610   88.7050  172.4150 H     8515  MOL8515     0.2052
  38545  H        138.2370   88.6320  173.4410 H     8515  MOL8515     0.2052
  38546  O        191.6400  145.3890  246.5530 O.3   8516  MOL8516    -0.4105
  38547  H        190.9350  144.7870  246.8700 H     8516  MOL8516     0.2052
  38548  H        192.3720  144.8370  246.1730 H     8516  MOL8516     0.2052
  38549  O        120.6940  143.2740  183.8600 O.3   8517  MOL8517    -0.4105
  38550  H        120.6730  143.9600  183.1600 H     8517  MOL8517     0.2052
  38551  H        120.0140  143.5070  184.5440 H     8517  MOL8517     0.2052
  38552  O        140.4770   84.1030    3.8870 O.3   8518  MOL8518    -0.4105
  38553  H        141.3100   83.7340    4.2480 H     8518  MOL8518     0.2052
  38554  H        140.4780   83.9690    2.9040 H     8518  MOL8518     0.2052
  38555  O         48.5060  115.7320  245.4740 O.3   8519  MOL8519    -0.4105
  38556  H         48.0300  116.5590  245.6960 H     8519  MOL8519     0.2052
  38557  H         49.4080  115.9740  245.1370 H     8519  MOL8519     0.2052
  38558  O        179.9440   69.6450  136.1960 O.3   8520  MOL8520    -0.4105
  38559  H        179.9790   70.5370  135.7930 H     8520  MOL8520     0.2052
  38560  H        179.0150   69.3040  136.1150 H     8520  MOL8520     0.2052
  38561  O         28.8310   10.4270   23.9400 O.3   8521  MOL8521    -0.4105
  38562  H         29.6150   10.0110   24.3540 H     8521  MOL8521     0.2052
  38563  H         29.1470   11.1390   23.3240 H     8521  MOL8521     0.2052
  38564  O         98.8010   94.9260  251.5730 O.3   8522  MOL8522    -0.4105
  38565  H         99.2380   94.0490  251.6020 H     8522  MOL8522     0.2052
  38566  H         97.9100   94.8150  251.1510 H     8522  MOL8522     0.2052
  38567  O        129.6850    5.8210  165.8940 O.3   8523  MOL8523    -0.4105
  38568  H        129.4130    4.9020  166.0960 H     8523  MOL8523     0.2052
  38569  H        129.0450    6.1970  165.2360 H     8523  MOL8523     0.2052
  38570  O         24.4490   19.0770  224.0490 O.3   8524  MOL8524    -0.4105
  38571  H         25.0500   19.8490  224.1020 H     8524  MOL8524     0.2052
  38572  H         24.3880   18.6690  224.9520 H     8524  MOL8524     0.2052
  38573  O        132.4750  104.6430   61.5940 O.3   8525  MOL8525    -0.4105
  38574  H        132.0830  103.7450   61.5630 H     8525  MOL8525     0.2052
  38575  H        133.4270  104.5750   61.3210 H     8525  MOL8525     0.2052
  38576  O        192.8910    4.7030  126.0130 O.3   8526  MOL8526    -0.4105
  38577  H        192.7640    5.6700  126.1040 H     8526  MOL8526     0.2052
  38578  H        192.0430    4.2530  126.2640 H     8526  MOL8526     0.2052
  38579  O         11.6890  168.8870  231.8030 O.3   8527  MOL8527    -0.4105
  38580  H         12.1370  169.7450  231.6510 H     8527  MOL8527     0.2052
  38581  H         10.7250  169.0640  231.9620 H     8527  MOL8527     0.2052
  38582  O         88.6440   37.8400  190.5600 O.3   8528  MOL8528    -0.4105
  38583  H         88.2850   38.4390  189.8720 H     8528  MOL8528     0.2052
  38584  H         89.2840   37.2180  190.1270 H     8528  MOL8528     0.2052
  38585  O        136.4300   17.2810   28.0120 O.3   8529  MOL8529    -0.4105
  38586  H        137.1500   17.9050   28.2400 H     8529  MOL8529     0.2052
  38587  H        136.8040   16.3620   28.0100 H     8529  MOL8529     0.2052
  38588  O         57.4730   65.1710   38.5820 O.3   8530  MOL8530    -0.4105
  38589  H         57.6690   64.8270   39.4780 H     8530  MOL8530     0.2052
  38590  H         56.8450   64.5440   38.1380 H     8530  MOL8530     0.2052
  38591  O        190.0110  134.9490   68.7880 O.3   8531  MOL8531    -0.4105
  38592  H        190.8830  134.5350   68.9590 H     8531  MOL8531     0.2052
  38593  H        190.1620  135.8110   68.3210 H     8531  MOL8531     0.2052
  38594  O         34.5600   15.5980  208.7620 O.3   8532  MOL8532    -0.4105
  38595  H         33.7420   15.9520  209.1680 H     8532  MOL8532     0.2052
  38596  H         34.4370   15.5840  207.7770 H     8532  MOL8532     0.2052
  38597  O         51.6610  156.5090  253.5800 O.3   8533  MOL8533    -0.4105
  38598  H         51.6520  157.2790  252.9740 H     8533  MOL8533     0.2052
  38599  H         50.7250  156.2080  253.7130 H     8533  MOL8533     0.2052
  38600  O         95.6610   15.1890  162.9450 O.3   8534  MOL8534    -0.4105
  38601  H         94.7340   14.9400  162.7460 H     8534  MOL8534     0.2052
  38602  H         96.2340   14.8700  162.2010 H     8534  MOL8534     0.2052
  38603  O        189.7460  132.5470  152.9470 O.3   8535  MOL8535    -0.4105
  38604  H        190.0760  133.0720  152.1890 H     8535  MOL8535     0.2052
  38605  H        189.4380  131.6680  152.6060 H     8535  MOL8535     0.2052
  38606  O         79.2750    2.7520  127.7730 O.3   8536  MOL8536    -0.4105
  38607  H         78.8950    2.4640  128.6300 H     8536  MOL8536     0.2052
  38608  H         79.1760    3.7370  127.7050 H     8536  MOL8536     0.2052
  38609  O        106.6150   50.9310   19.0350 O.3   8537  MOL8537    -0.4105
  38610  H        106.8310   51.6310   19.6860 H     8537  MOL8537     0.2052
  38611  H        107.2760   50.1980   19.1350 H     8537  MOL8537     0.2052
  38612  O         48.8120  109.2430   95.3570 O.3   8538  MOL8538    -0.4105
  38613  H         49.4910  109.8910   95.6400 H     8538  MOL8538     0.2052
  38614  H         48.7000  108.5740   96.0810 H     8538  MOL8538     0.2052
  38615  O          7.9160   14.9700   91.5820 O.3   8539  MOL8539    -0.4105
  38616  H          7.0170   15.3480   91.6800 H     8539  MOL8539     0.2052
  38617  H          7.8280   13.9920   91.4430 H     8539  MOL8539     0.2052
  38618  O        154.2160  152.5060  135.5550 O.3   8540  MOL8540    -0.4105
  38619  H        154.3800  153.4240  135.8560 H     8540  MOL8540     0.2052
  38620  H        154.6490  151.8870  136.1980 H     8540  MOL8540     0.2052
  38621  O        189.0140  171.6910  107.9580 O.3   8541  MOL8541    -0.4105
  38622  H        189.0570  172.2600  107.1610 H     8541  MOL8541     0.2052
  38623  H        189.7320  171.9740  108.5810 H     8541  MOL8541     0.2052
  38624  O        168.4310    4.9670    5.2870 O.3   8542  MOL8542    -0.4105
  38625  H        167.6970    4.3190    5.2480 H     8542  MOL8542     0.2052
  38626  H        169.1880    4.5490    5.7750 H     8542  MOL8542     0.2052
  38627  O        111.3880   79.1600  279.0690 O.3   8543  MOL8543    -0.4105
  38628  H        111.8610   79.9690  278.7810 H     8543  MOL8543     0.2052
  38629  H        111.6780   78.9440  279.9930 H     8543  MOL8543     0.2052
  38630  O        165.7650  118.6100  127.1110 O.3   8544  MOL8544    -0.4105
  38631  H        166.3670  117.8820  127.3710 H     8544  MOL8544     0.2052
  38632  H        166.1820  119.4690  127.3840 H     8544  MOL8544     0.2052
  38633  O         24.6770  184.0500  201.5980 O.3   8545  MOL8545    -0.4105
  38634  H         25.3730  184.5850  201.1610 H     8545  MOL8545     0.2052
  38635  H         24.6950  184.2520  202.5690 H     8545  MOL8545     0.2052
  38636  O         54.9280   79.8690  227.4140 O.3   8546  MOL8546    -0.4105
  38637  H         54.0940   79.8220  226.9020 H     8546  MOL8546     0.2052
  38638  H         55.6860   79.8570  226.7750 H     8546  MOL8546     0.2052
  38639  O        195.8640   13.5910  135.5660 O.3   8547  MOL8547    -0.4105
  38640  H        195.9320   13.5270  136.5410 H     8547  MOL8547     0.2052
  38641  H        195.1580   12.9640  135.2620 H     8547  MOL8547     0.2052
  38642  O        147.9360  177.0470   95.0280 O.3   8548  MOL8548    -0.4105
  38643  H        147.2290  176.6590   95.5840 H     8548  MOL8548     0.2052
  38644  H        148.1840  176.3840   94.3330 H     8548  MOL8548     0.2052
  38645  O        101.0710  137.7030   60.5900 O.3   8549  MOL8549    -0.4105
  38646  H        101.0010  136.7250   60.5960 H     8549  MOL8549     0.2052
  38647  H        100.5850  138.0440   59.7950 H     8549  MOL8549     0.2052
  38648  O        101.4480   17.5530   95.3800 O.3   8550  MOL8550    -0.4105
  38649  H        100.8790   17.2780   94.6310 H     8550  MOL8550     0.2052
  38650  H        101.7230   18.4950   95.2320 H     8550  MOL8550     0.2052
  38651  O         95.9260   25.1000  255.7290 O.3   8551  MOL8551    -0.4105
  38652  H         96.7010   24.5630  255.4610 H     8551  MOL8551     0.2052
  38653  H         95.1770   24.4840  255.9350 H     8551  MOL8551     0.2052
  38654  O        137.3360  167.0950  211.4650 O.3   8552  MOL8552    -0.4105
  38655  H        137.1800  167.8400  210.8480 H     8552  MOL8552     0.2052
  38656  H        137.6220  167.4690  212.3380 H     8552  MOL8552     0.2052
  38657  O         90.0620  120.0910  186.0310 O.3   8553  MOL8553    -0.4105
  38658  H         89.2000  120.5530  186.0920 H     8553  MOL8553     0.2052
  38659  H         90.7720  120.7180  186.3260 H     8553  MOL8553     0.2052
  38660  O         66.1070   33.6170   61.7240 O.3   8554  MOL8554    -0.4105
  38661  H         66.1520   33.5800   60.7460 H     8554  MOL8554     0.2052
  38662  H         65.6310   34.4490   61.9820 H     8554  MOL8554     0.2052
  38663  O        160.8100  163.0910  103.6120 O.3   8555  MOL8555    -0.4105
  38664  H        161.6580  162.8040  103.2130 H     8555  MOL8555     0.2052
  38665  H        160.3660  162.2950  104.0040 H     8555  MOL8555     0.2052
  38666  O        164.2780  105.3730   41.0170 O.3   8556  MOL8556    -0.4105
  38667  H        163.7600  105.0080   40.2690 H     8556  MOL8556     0.2052
  38668  H        163.9970  106.3140   41.1600 H     8556  MOL8556     0.2052
  38669  O        136.9050  198.6350  167.3720 O.3   8557  MOL8557    -0.4105
  38670  H        137.6090  197.9670  167.2330 H     8557  MOL8557     0.2052
  38671  H        136.0450  198.1580  167.5030 H     8557  MOL8557     0.2052
  38672  O         88.4730  149.3100  284.2230 O.3   8558  MOL8558    -0.4105
  38673  H         89.4310  149.5190  284.2240 H     8558  MOL8558     0.2052
  38674  H         88.3710  148.3230  284.2240 H     8558  MOL8558     0.2052
  38675  O        125.4550  154.2870  228.3470 O.3   8559  MOL8559    -0.4105
  38676  H        125.2500  153.3300  228.3940 H     8559  MOL8559     0.2052
  38677  H        126.3840  154.3890  228.0140 H     8559  MOL8559     0.2052
  38678  O         19.8130  137.6460  185.4620 O.3   8560  MOL8560    -0.4105
  38679  H         20.7810  137.7180  185.3310 H     8560  MOL8560     0.2052
  38680  H         19.5200  136.7580  185.1310 H     8560  MOL8560     0.2052
  38681  O         39.7240   83.6760  297.2350 O.3   8561  MOL8561    -0.4105
  38682  H         39.4460   82.8210  297.6260 H     8561  MOL8561     0.2052
  38683  H         39.1940   83.8280  296.4110 H     8561  MOL8561     0.2052
  38684  O        190.3190   49.4970  146.0190 O.3   8562  MOL8562    -0.4105
  38685  H        189.4040   49.7560  145.7800 H     8562  MOL8562     0.2052
  38686  H        190.7230   49.0310  145.2420 H     8562  MOL8562     0.2052
  38687  O         60.2810  198.4170  149.6900 O.3   8563  MOL8563    -0.4105
  38688  H         59.9360  197.5490  149.3910 H     8563  MOL8563     0.2052
  38689  H         61.2310  198.3000  149.9520 H     8563  MOL8563     0.2052
  38690  O        117.6370  121.2730    6.6360 O.3   8564  MOL8564    -0.4105
  38691  H        118.5750  121.1140    6.4040 H     8564  MOL8564     0.2052
  38692  H        117.2850  121.9820    6.0370 H     8564  MOL8564     0.2052
  38693  O         47.7240   66.8720  238.8900 O.3   8565  MOL8565    -0.4105
  38694  H         48.1760   66.1690  238.3790 H     8565  MOL8565     0.2052
  38695  H         46.9580   66.4630  239.3700 H     8565  MOL8565     0.2052
  38696  O         63.7690  147.7000  235.3600 O.3   8566  MOL8566    -0.4105
  38697  H         63.5530  146.7840  235.0870 H     8566  MOL8566     0.2052
  38698  H         64.6590  147.9330  234.9880 H     8566  MOL8566     0.2052
  38699  O         21.7960    2.4250  174.7510 O.3   8567  MOL8567    -0.4105
  38700  H         21.5670    3.3760  174.8090 H     8567  MOL8567     0.2052
  38701  H         22.7850    2.3440  174.7350 H     8567  MOL8567     0.2052
  38702  O         23.2530  150.4970  105.0420 O.3   8568  MOL8568    -0.4105
  38703  H         24.2280  150.4030  104.9980 H     8568  MOL8568     0.2052
  38704  H         22.8640  149.6040  105.2320 H     8568  MOL8568     0.2052
  38705  O          9.6250    7.9610  119.1960 O.3   8569  MOL8569    -0.4105
  38706  H         10.3660    8.5780  119.0200 H     8569  MOL8569     0.2052
  38707  H          9.0990    7.8600  118.3610 H     8569  MOL8569     0.2052
  38708  O         81.8940   83.0600  216.8150 O.3   8570  MOL8570    -0.4105
  38709  H         82.1970   82.1650  216.5530 H     8570  MOL8570     0.2052
  38710  H         81.7600   83.5950  215.9900 H     8570  MOL8570     0.2052
  38711  O        171.3740   36.3070  250.3110 O.3   8571  MOL8571    -0.4105
  38712  H        172.1880   35.7640  250.2810 H     8571  MOL8571     0.2052
  38713  H        170.5930   35.6950  250.3320 H     8571  MOL8571     0.2052
  38714  O        135.6720  171.6360   31.8140 O.3   8572  MOL8572    -0.4105
  38715  H        136.0930  171.7250   32.6950 H     8572  MOL8572     0.2052
  38716  H        136.3820  171.6920   31.1240 H     8572  MOL8572     0.2052
  38717  O         80.3920   52.8320   37.1920 O.3   8573  MOL8573    -0.4105
  38718  H         79.4970   52.7490   37.5820 H     8573  MOL8573     0.2052
  38719  H         80.7760   53.7010   37.4790 H     8573  MOL8573     0.2052
  38720  O        164.2500  107.0920  276.3530 O.3   8574  MOL8574    -0.4105
  38721  H        164.2600  106.5500  275.5370 H     8574  MOL8574     0.2052
  38722  H        163.4660  106.8200  276.8970 H     8574  MOL8574     0.2052
  38723  O        161.3760   73.1640  213.0480 O.3   8575  MOL8575    -0.4105
  38724  H        162.1430   73.5810  213.4940 H     8575  MOL8575     0.2052
  38725  H        161.5590   72.1920  212.9600 H     8575  MOL8575     0.2052
  38726  O          9.2960   93.2930   91.7890 O.3   8576  MOL8576    -0.4105
  38727  H          8.4490   93.4520   91.3220 H     8576  MOL8576     0.2052
  38728  H          9.5150   92.3280   91.7170 H     8576  MOL8576     0.2052
  38729  O        100.7680   36.9060  269.4930 O.3   8577  MOL8577    -0.4105
  38730  H        101.3910   37.5720  269.1330 H     8577  MOL8577     0.2052
  38731  H        100.1210   36.6690  268.7790 H     8577  MOL8577     0.2052
  38732  O        198.6550   99.8780  240.0910 O.3   8578  MOL8578    -0.4105
  38733  H        197.7030  100.0360  239.9210 H     8578  MOL8578     0.2052
  38734  H        199.0600  100.7280  240.4020 H     8578  MOL8578     0.2052
  38735  O        145.1970  158.0530  263.9700 O.3   8579  MOL8579    -0.4105
  38736  H        145.6350  158.4460  263.1860 H     8579  MOL8579     0.2052
  38737  H        144.2330  158.2850  263.9360 H     8579  MOL8579     0.2052
  38738  O         73.2180  127.0580  231.0190 O.3   8580  MOL8580    -0.4105
  38739  H         73.3480  126.1600  231.3910 H     8580  MOL8580     0.2052
  38740  H         73.3380  127.7170  231.7510 H     8580  MOL8580     0.2052
  38741  O         34.0850   66.8480  298.0970 O.3   8581  MOL8581    -0.4105
  38742  H         34.3740   65.9250  298.2570 H     8581  MOL8581     0.2052
  38743  H         34.3140   67.0870  297.1620 H     8581  MOL8581     0.2052
  38744  O         60.7190  186.3000  244.1870 O.3   8582  MOL8582    -0.4105
  38745  H         60.1080  185.5770  243.9330 H     8582  MOL8582     0.2052
  38746  H         60.1870  187.1310  244.2970 H     8582  MOL8582     0.2052
  38747  O        162.7090   71.1350  282.6200 O.3   8583  MOL8583    -0.4105
  38748  H        163.5390   71.5990  282.3810 H     8583  MOL8583     0.2052
  38749  H        162.8800   70.5880  283.4290 H     8583  MOL8583     0.2052
  38750  O         62.7640  184.9800    4.8040 O.3   8584  MOL8584    -0.4105
  38751  H         62.0220  184.3400    4.8200 H     8584  MOL8584     0.2052
  38752  H         63.6150  184.4690    4.7990 H     8584  MOL8584     0.2052
  38753  O         19.0180  173.8450  140.6810 O.3   8585  MOL8585    -0.4105
  38754  H         19.9290  174.2040  140.6400 H     8585  MOL8585     0.2052
  38755  H         19.0750  172.8550  140.7000 H     8585  MOL8585     0.2052
  38756  O          0.7020   75.6110    8.2170 O.3   8586  MOL8586    -0.4105
  38757  H          0.0760   74.8780    8.0370 H     8586  MOL8586     0.2052
  38758  H          1.4740   75.2430    8.7200 H     8586  MOL8586     0.2052
  38759  O         22.3810   84.4730  217.6530 O.3   8587  MOL8587    -0.4105
  38760  H         21.8140   84.8310  218.3680 H     8587  MOL8587     0.2052
  38761  H         22.8640   83.6810  218.0060 H     8587  MOL8587     0.2052
  38762  O        184.5410   42.1760  144.5950 O.3   8588  MOL8588    -0.4105
  38763  H        183.8550   41.4990  144.4180 H     8588  MOL8588     0.2052
  38764  H        185.4310   41.7460  144.5040 H     8588  MOL8588     0.2052
  38765  O         19.9590   90.6380  166.0840 O.3   8589  MOL8589    -0.4105
  38766  H         19.7750   90.9570  165.1760 H     8589  MOL8589     0.2052
  38767  H         19.6670   89.6910  166.1450 H     8589  MOL8589     0.2052
  38768  O        187.5700   58.4080  247.3580 O.3   8590  MOL8590    -0.4105
  38769  H        188.4750   58.4150  246.9840 H     8590  MOL8590     0.2052
  38770  H        187.4940   57.6320  247.9720 H     8590  MOL8590     0.2052
  38771  O         68.3140  175.6700   41.6320 O.3   8591  MOL8591    -0.4105
  38772  H         68.9450  174.9540   41.8550 H     8591  MOL8591     0.2052
  38773  H         67.4390  175.2560   41.4150 H     8591  MOL8591     0.2052
  38774  O         41.0360   88.7910  251.9990 O.3   8592  MOL8592    -0.4105
  38775  H         41.6040   88.6420  251.2140 H     8592  MOL8592     0.2052
  38776  H         40.4910   89.6050  251.8380 H     8592  MOL8592     0.2052
  38777  O         59.8290  191.7940   41.4050 O.3   8593  MOL8593    -0.4105
  38778  H         59.3190  190.9780   41.2200 H     8593  MOL8593     0.2052
  38779  H         60.7170  191.5310   41.7630 H     8593  MOL8593     0.2052
  38780  O        193.9220   77.2670  251.8970 O.3   8594  MOL8594    -0.4105
  38781  H        193.0510   76.8220  251.8290 H     8594  MOL8594     0.2052
  38782  H        194.6000   76.5850  252.1420 H     8594  MOL8594     0.2052
  38783  O        117.3530  177.9790  162.4100 O.3   8595  MOL8595    -0.4105
  38784  H        117.7430  177.2210  161.9260 H     8595  MOL8595     0.2052
  38785  H        116.5720  178.3080  161.8950 H     8595  MOL8595     0.2052
  38786  O         28.7500   12.1420   77.0700 O.3   8596  MOL8596    -0.4105
  38787  H         29.2080   11.2770   77.1220 H     8596  MOL8596     0.2052
  38788  H         27.8550   12.0450   77.4880 H     8596  MOL8596     0.2052
  38789  O         59.2030  107.7030  253.0530 O.3   8597  MOL8597    -0.4105
  38790  H         59.0360  107.3560  252.1520 H     8597  MOL8597     0.2052
  38791  H         58.7690  107.0950  253.7060 H     8597  MOL8597     0.2052
  38792  O        106.8380  111.9320  169.4160 O.3   8598  MOL8598    -0.4105
  38793  H        107.3960  111.6290  168.6690 H     8598  MOL8598     0.2052
  38794  H        107.2360  111.5930  170.2590 H     8598  MOL8598     0.2052
  38795  O        103.2460   77.4240   49.2130 O.3   8599  MOL8599    -0.4105
  38796  H        102.3240   77.0960   49.2710 H     8599  MOL8599     0.2052
  38797  H        103.7910   76.7380   48.7480 H     8599  MOL8599     0.2052
  38798  O        190.7140   22.6270   33.5500 O.3   8600  MOL8600    -0.4105
  38799  H        190.6750   21.6480   33.5440 H     8600  MOL8600     0.2052
  38800  H        189.7880   22.9750   33.4660 H     8600  MOL8600     0.2052
  38801  O         36.0160   22.8770  260.0710 O.3   8601  MOL8601    -0.4105
  38802  H         35.5640   22.0080  260.0300 H     8601  MOL8601     0.2052
  38803  H         36.9950   22.7170  260.0930 H     8601  MOL8601     0.2052
  38804  O        192.0720   48.4340    4.7750 O.3   8602  MOL8602    -0.4105
  38805  H        192.5760   49.1060    4.2700 H     8602  MOL8602     0.2052
  38806  H        191.3030   48.1420    4.2200 H     8602  MOL8602     0.2052
  38807  O         35.2950  130.6080   71.6650 O.3   8603  MOL8603    -0.4105
  38808  H         35.4470  129.6640   71.4480 H     8603  MOL8603     0.2052
  38809  H         35.9920  130.8940   72.3100 H     8603  MOL8603     0.2052
  38810  O        152.9290   86.2260   62.8970 O.3   8604  MOL8604    -0.4105
  38811  H        153.6890   86.1390   62.2840 H     8604  MOL8604     0.2052
  38812  H        152.6130   85.3140   63.1300 H     8604  MOL8604     0.2052
  38813  O         39.2570   81.3120   91.2870 O.3   8605  MOL8605    -0.4105
  38814  H         38.6140   81.2690   90.5490 H     8605  MOL8605     0.2052
  38815  H         38.8460   80.8830   92.0820 H     8605  MOL8605     0.2052
  38816  O          2.0150  168.9290  293.2600 O.3   8606  MOL8606    -0.4105
  38817  H          1.2110  169.4890  293.2470 H     8606  MOL8606     0.2052
  38818  H          1.7320  167.9780  293.2500 H     8606  MOL8606     0.2052
  38819  O         89.9950   45.0060   97.7300 O.3   8607  MOL8607    -0.4105
  38820  H         89.6670   45.7450   98.2840 H     8607  MOL8607     0.2052
  38821  H         89.2180   44.5880   97.2760 H     8607  MOL8607     0.2052
  38822  O        184.7520  131.6290   93.4880 O.3   8608  MOL8608    -0.4105
  38823  H        183.8000  131.8490   93.5650 H     8608  MOL8608     0.2052
  38824  H        185.2490  132.4660   93.2920 H     8608  MOL8608     0.2052
  38825  O          9.5920   64.1500  234.3760 O.3   8609  MOL8609    -0.4105
  38826  H          9.8240   63.8720  235.2870 H     8609  MOL8609     0.2052
  38827  H          8.7550   63.6870  234.1140 H     8609  MOL8609     0.2052
  38828  O         97.0760  182.5650  121.7650 O.3   8610  MOL8610    -0.4105
  38829  H         97.7830  182.7820  121.1220 H     8610  MOL8610     0.2052
  38830  H         96.8240  183.3980  122.2420 H     8610  MOL8610     0.2052
  38831  O        119.1800  193.3040  241.2480 O.3   8611  MOL8611    -0.4105
  38832  H        119.9510  193.9080  241.2940 H     8611  MOL8611     0.2052
  38833  H        118.3540  193.8540  241.2680 H     8611  MOL8611     0.2052
  38834  O         21.5030  128.2580  133.3550 O.3   8612  MOL8612    -0.4105
  38835  H         20.7660  128.8120  133.0230 H     8612  MOL8612     0.2052
  38836  H         21.1810  127.3230  133.4270 H     8612  MOL8612     0.2052
  38837  O         10.8340   99.2070  114.2860 O.3   8613  MOL8613    -0.4105
  38838  H         11.7850   99.3110  114.5000 H     8613  MOL8613     0.2052
  38839  H         10.5930   99.8890  113.6060 H     8613  MOL8613     0.2052
  38840  O        117.7930   43.6110   64.1130 O.3   8614  MOL8614    -0.4105
  38841  H        117.0150   44.1920   64.2480 H     8614  MOL8614     0.2052
  38842  H        117.4870   42.6680   64.1520 H     8614  MOL8614     0.2052
  38843  O         40.9120  167.2400   82.4670 O.3   8615  MOL8615    -0.4105
  38844  H         41.8170  167.4540   82.7750 H     8615  MOL8615     0.2052
  38845  H         40.9450  166.3740   81.9840 H     8615  MOL8615     0.2052
  38846  O        177.9420   51.8020  234.7270 O.3   8616  MOL8616    -0.4105
  38847  H        176.9930   51.6890  234.9430 H     8616  MOL8616     0.2052
  38848  H        178.0990   52.7560  234.5030 H     8616  MOL8616     0.2052
  38849  O        108.8630   20.3670   90.2140 O.3   8617  MOL8617    -0.4105
  38850  H        109.6010   19.8790   90.6360 H     8617  MOL8617     0.2052
  38851  H        109.2450   20.9730   89.5270 H     8617  MOL8617     0.2052
  38852  O         57.0940  117.4440  207.5090 O.3   8618  MOL8618    -0.4105
  38853  H         57.2690  116.8530  206.7470 H     8618  MOL8618     0.2052
  38854  H         57.3660  118.3640  207.2560 H     8618  MOL8618     0.2052
  38855  O         26.7890   12.5400   53.0440 O.3   8619  MOL8619    -0.4105
  38856  H         27.3930   13.3110   53.0400 H     8619  MOL8619     0.2052
  38857  H         26.0240   12.7420   52.4440 H     8619  MOL8619     0.2052
  38858  O        121.5430  132.8350   29.6900 O.3   8620  MOL8620    -0.4105
  38859  H        120.8810  132.8520   30.4130 H     8620  MOL8620     0.2052
  38860  H        121.1070  132.4650   28.8790 H     8620  MOL8620     0.2052
  38861  O         63.4480  194.8030  109.6840 O.3   8621  MOL8621    -0.4105
  38862  H         64.3110  195.2650  109.6390 H     8621  MOL8621     0.2052
  38863  H         63.4170  194.2830  110.5290 H     8621  MOL8621     0.2052
  38864  O         58.0770   89.2620  179.9850 O.3   8622  MOL8622    -0.4105
  38865  H         58.6900   88.8050  179.3730 H     8622  MOL8622     0.2052
  38866  H         57.2900   89.5700  179.4650 H     8622  MOL8622     0.2052
  38867  O        172.0460   80.2790  281.1260 O.3   8623  MOL8623    -0.4105
  38868  H        172.6810   81.0250  281.1250 H     8623  MOL8623     0.2052
  38869  H        172.5620   79.4320  281.1330 H     8623  MOL8623     0.2052
  38870  O        153.0120  128.8900  255.9080 O.3   8624  MOL8624    -0.4105
  38871  H        152.4500  128.0870  255.8820 H     8624  MOL8624     0.2052
  38872  H        153.9610  128.6030  255.9340 H     8624  MOL8624     0.2052
  38873  O        173.6550  138.2400  224.5390 O.3   8625  MOL8625    -0.4105
  38874  H        173.8970  137.3730  224.9270 H     8625  MOL8625     0.2052
  38875  H        172.7690  138.5050  224.9000 H     8625  MOL8625     0.2052
  38876  O        119.2140  151.9520  219.5410 O.3   8626  MOL8626    -0.4105
  38877  H        118.2850  151.6670  219.4110 H     8626  MOL8626     0.2052
  38878  H        119.7430  151.1620  219.8250 H     8626  MOL8626     0.2052
  38879  O        170.2360  160.4220  258.2380 O.3   8627  MOL8627    -0.4105
  38880  H        170.9860  159.9990  258.7070 H     8627  MOL8627     0.2052
  38881  H        169.6710  160.8840  258.9090 H     8627  MOL8627     0.2052
  38882  O        169.4690   56.5720  123.8610 O.3   8628  MOL8628    -0.4105
  38883  H        168.9370   57.1880  124.4070 H     8628  MOL8628     0.2052
  38884  H        169.7270   55.7990  124.4270 H     8628  MOL8628     0.2052
  38885  O         58.3400  185.5590  195.0710 O.3   8629  MOL8629    -0.4105
  38886  H         57.6180  184.8980  195.1310 H     8629  MOL8629     0.2052
  38887  H         59.1090  185.2270  195.6030 H     8629  MOL8629     0.2052
  38888  O        120.1330   10.6320  225.7840 O.3   8630  MOL8630    -0.4105
  38889  H        120.9830   10.4760  226.2460 H     8630  MOL8630     0.2052
  38890  H        119.7510    9.7520  225.5300 H     8630  MOL8630     0.2052
  38891  O         22.2600    5.3340  222.8990 O.3   8631  MOL8631    -0.4105
  38892  H         22.2510    4.3650  222.7480 H     8631  MOL8631     0.2052
  38893  H         23.2040    5.6380  222.9080 H     8631  MOL8631     0.2052
  38894  O        131.8000  160.7660  165.3050 O.3   8632  MOL8632    -0.4105
  38895  H        131.9920  161.7230  165.4000 H     8632  MOL8632     0.2052
  38896  H        132.6360  160.3060  165.0340 H     8632  MOL8632     0.2052
  38897  O         75.5630   46.2240  286.8040 O.3   8633  MOL8633    -0.4105
  38898  H         74.7640   46.5820  286.3640 H     8633  MOL8633     0.2052
  38899  H         75.3270   45.3490  287.2090 H     8633  MOL8633     0.2052
  38900  O        136.2050   94.5930  175.4100 O.3   8634  MOL8634    -0.4105
  38901  H        136.3880   95.2800  174.7350 H     8634  MOL8634     0.2052
  38902  H        137.0520   94.3910  175.8860 H     8634  MOL8634     0.2052
  38903  O          7.6150   26.2640  129.6390 O.3   8635  MOL8635    -0.4105
  38904  H          7.4360   26.9820  128.9970 H     8635  MOL8635     0.2052
  38905  H          7.8610   26.6780  130.5070 H     8635  MOL8635     0.2052
  38906  O         52.6570  121.7940  192.5290 O.3   8636  MOL8636    -0.4105
  38907  H         52.3080  120.9890  192.9650 H     8636  MOL8636     0.2052
  38908  H         51.9190  122.2130  192.0150 H     8636  MOL8636     0.2052
  38909  O        162.4710   40.4470   54.1240 O.3   8637  MOL8637    -0.4105
  38910  H        163.4130   40.1750   54.1470 H     8637  MOL8637     0.2052
  38911  H        162.1610   40.4110   53.1820 H     8637  MOL8637     0.2052
  38912  O        155.2560   54.4570   55.8690 O.3   8638  MOL8638    -0.4105
  38913  H        156.1160   54.7950   56.1950 H     8638  MOL8638     0.2052
  38914  H        155.2940   53.4650   55.8640 H     8638  MOL8638     0.2052
  38915  O         44.2510  103.3320  142.2300 O.3   8639  MOL8639    -0.4105
  38916  H         44.9790  103.9610  142.4160 H     8639  MOL8639     0.2052
  38917  H         44.6400  102.4230  142.1460 H     8639  MOL8639     0.2052
  38918  O        104.8990   74.6770   29.5960 O.3   8640  MOL8640    -0.4105
  38919  H        104.3290   73.8810   29.5480 H     8640  MOL8640     0.2052
  38920  H        104.4110   75.4340   29.1800 H     8640  MOL8640     0.2052
  38921  O          9.0670   55.5210  164.9800 O.3   8641  MOL8641    -0.4105
  38922  H          8.1640   55.9010  165.0030 H     8641  MOL8641     0.2052
  38923  H          8.9880   54.5320  164.9780 H     8641  MOL8641     0.2052
  38924  O        133.3470  182.3410  235.0220 O.3   8642  MOL8642    -0.4105
  38925  H        133.8580  181.5430  235.2720 H     8642  MOL8642     0.2052
  38926  H        132.4630  182.2960  235.4710 H     8642  MOL8642     0.2052
  38927  O         85.0520  180.0960   94.4790 O.3   8643  MOL8643    -0.4105
  38928  H         84.6350  180.5280   93.7050 H     8643  MOL8643     0.2052
  38929  H         85.7990  179.5300   94.1530 H     8643  MOL8643     0.2052
  38930  O        185.5230  123.5110  272.4680 O.3   8644  MOL8644    -0.4105
  38931  H        184.9850  124.2790  272.7530 H     8644  MOL8644     0.2052
  38932  H        185.1310  122.6920  272.8680 H     8644  MOL8644     0.2052
  38933  O        172.6790   60.6160   60.2500 O.3   8645  MOL8645    -0.4105
  38934  H        171.8040   61.0360   60.1150 H     8645  MOL8645     0.2052
  38935  H        172.5530   59.8100   60.8140 H     8645  MOL8645     0.2052
  38936  O        138.0240  162.8000  214.2060 O.3   8646  MOL8646    -0.4105
  38937  H        138.1510  163.7710  214.1760 H     8646  MOL8646     0.2052
  38938  H        138.9180  162.3700  214.2290 H     8646  MOL8646     0.2052
  38939  O        155.0020  117.8900  202.2360 O.3   8647  MOL8647    -0.4105
  38940  H        154.4400  118.6020  202.6080 H     8647  MOL8647     0.2052
  38941  H        154.7470  117.0350  202.6710 H     8647  MOL8647     0.2052
  38942  O         34.9040  181.9610  178.8510 O.3   8648  MOL8648    -0.4105
  38943  H         35.4300  182.7110  179.2000 H     8648  MOL8648     0.2052
  38944  H         35.5310  181.2980  178.4610 H     8648  MOL8648     0.2052
  38945  O         28.4720   96.2270  118.3660 O.3   8649  MOL8649    -0.4105
  38946  H         29.1700   95.5620  118.5440 H     8649  MOL8649     0.2052
  38947  H         28.9090   97.1070  118.2290 H     8649  MOL8649     0.2052
  38948  O         25.1910  103.1490  272.9440 O.3   8650  MOL8650    -0.4105
  38949  H         24.9860  104.0640  272.6590 H     8650  MOL8650     0.2052
  38950  H         25.4790  103.1770  273.8930 H     8650  MOL8650     0.2052
  38951  O        136.0210    7.2660  275.4800 O.3   8651  MOL8651    -0.4105
  38952  H        135.1170    7.0530  275.7910 H     8651  MOL8651     0.2052
  38953  H        136.6650    6.7110  275.9920 H     8651  MOL8651     0.2052
  38954  O         29.5480  112.1050  166.1000 O.3   8652  MOL8652    -0.4105
  38955  H         29.8330  112.8320  165.5080 H     8652  MOL8652     0.2052
  38956  H         28.7800  112.4270  166.6400 H     8652  MOL8652     0.2052
  38957  O        172.6600   80.7720  121.9000 O.3   8653  MOL8653    -0.4105
  38958  H        172.8680   80.4620  122.8060 H     8653  MOL8653     0.2052
  38959  H        171.8940   81.4000  121.9540 H     8653  MOL8653     0.2052
  38960  O         60.1580   43.8920   62.6720 O.3   8654  MOL8654    -0.4105
  38961  H         59.4450   44.5580   62.7570 H     8654  MOL8654     0.2052
  38962  H         59.7390   42.9940   62.6170 H     8654  MOL8654     0.2052
  38963  O          3.6980   76.3780  242.0180 O.3   8655  MOL8655    -0.4105
  38964  H          3.9820   75.4510  241.8750 H     8655  MOL8655     0.2052
  38965  H          2.7060   76.3960  242.0540 H     8655  MOL8655     0.2052
  38966  O        175.7030   92.9210   28.9460 O.3   8656  MOL8656    -0.4105
  38967  H        175.1060   93.5620   29.3850 H     8656  MOL8656     0.2052
  38968  H        175.5370   92.9620   27.9680 H     8656  MOL8656     0.2052
  38969  O        185.1900  106.0470   17.0460 O.3   8657  MOL8657    -0.4105
  38970  H        186.1280  106.3320   17.0460 H     8657  MOL8657     0.2052
  38971  H        184.8050  106.2470   16.1540 H     8657  MOL8657     0.2052
  38972  O        189.4640  153.7050  220.0170 O.3   8658  MOL8658    -0.4105
  38973  H        189.7860  153.4950  219.1150 H     8658  MOL8658     0.2052
  38974  H        190.2100  154.1160  220.5250 H     8658  MOL8658     0.2052
  38975  O         72.6990   26.5330   70.0280 O.3   8659  MOL8659    -0.4105
  38976  H         73.1960   26.3210   69.2100 H     8659  MOL8659     0.2052
  38977  H         72.5550   25.6900   70.5310 H     8659  MOL8659     0.2052
  38978  O        148.4870   12.8470    9.4640 O.3   8660  MOL8660    -0.4105
  38979  H        148.3040   13.6950    9.0080 H     8660  MOL8660     0.2052
  38980  H        148.4270   12.1160    8.7950 H     8660  MOL8660     0.2052
  38981  O         12.3520    7.9580   78.6950 O.3   8661  MOL8661    -0.4105
  38982  H         11.6470    8.6390   78.6640 H     8661  MOL8661     0.2052
  38983  H         11.9200    7.0680   78.7660 H     8661  MOL8661     0.2052
  38984  O        135.4890  151.0490    1.5180 O.3   8662  MOL8662    -0.4105
  38985  H        135.6400  151.9940    1.7290 H     8662  MOL8662     0.2052
  38986  H        134.7380  150.9910    0.8720 H     8662  MOL8662     0.2052
  38987  O         65.6710  172.2830   95.8580 O.3   8663  MOL8663    -0.4105
  38988  H         65.7050  172.1530   94.8870 H     8663  MOL8663     0.2052
  38989  H         64.8620  172.8160   96.0720 H     8663  MOL8663     0.2052
  38990  O        124.0840   55.6630   73.4200 O.3   8664  MOL8664    -0.4105
  38991  H        123.7380   54.9310   72.8660 H     8664  MOL8664     0.2052
  38992  H        125.0490   55.7760   73.2180 H     8664  MOL8664     0.2052
  38993  O         96.3540    7.4270  237.7520 O.3   8665  MOL8665    -0.4105
  38994  H         97.3250    7.5580  237.7730 H     8665  MOL8665     0.2052
  38995  H         96.1730    6.4520  237.7150 H     8665  MOL8665     0.2052
  38996  O          8.7820   73.6320  205.1040 O.3   8666  MOL8666    -0.4105
  38997  H          9.5040   72.9750  205.0140 H     8666  MOL8666     0.2052
  38998  H          7.9960   73.3010  204.5970 H     8666  MOL8666     0.2052
  38999  O        176.9280  143.0540  281.0820 O.3   8667  MOL8667    -0.4105
  39000  H        176.9080  142.4190  280.3360 H     8667  MOL8667     0.2052
  39001  H        176.3300  143.8140  280.8580 H     8667  MOL8667     0.2052
  39002  O         93.7880  163.4340  272.6890 O.3   8668  MOL8668    -0.4105
  39003  H         93.4350  162.9800  273.4820 H     8668  MOL8668     0.2052
  39004  H         93.8800  164.3990  272.8990 H     8668  MOL8668     0.2052
  39005  O        170.7180  132.1460  197.9250 O.3   8669  MOL8669    -0.4105
  39006  H        171.1860  131.2920  198.0350 H     8669  MOL8669     0.2052
  39007  H        171.3960  132.8700  197.8900 H     8669  MOL8669     0.2052
  39008  O        166.6160   88.9550   44.6820 O.3   8670  MOL8670    -0.4105
  39009  H        165.8790   88.8170   44.0510 H     8670  MOL8670     0.2052
  39010  H        166.4590   88.3770   45.4740 H     8670  MOL8670     0.2052
  39011  O        196.8080  137.4220  180.1560 O.3   8671  MOL8671    -0.4105
  39012  H        196.3820  137.6870  180.9980 H     8671  MOL8671     0.2052
  39013  H        196.6150  136.4620  179.9980 H     8671  MOL8671     0.2052
  39014  O        161.7080   52.0250   18.5510 O.3   8672  MOL8672    -0.4105
  39015  H        160.8900   51.6640   18.9520 H     8672  MOL8672     0.2052
  39016  H        161.8900   52.9100   18.9620 H     8672  MOL8672     0.2052
  39017  O         49.3030  128.9500  249.8940 O.3   8673  MOL8673    -0.4105
  39018  H         49.9000  128.4760  250.5090 H     8673  MOL8673     0.2052
  39019  H         49.1410  129.8590  250.2570 H     8673  MOL8673     0.2052
  39020  O         75.0700   82.4910  234.9320 O.3   8674  MOL8674    -0.4105
  39021  H         75.6800   82.0120  235.5310 H     8674  MOL8674     0.2052
  39022  H         74.1620   82.1050  235.0400 H     8674  MOL8674     0.2052
  39023  O        152.7640   14.1790  203.1250 O.3   8675  MOL8675    -0.4105
  39024  H        152.5140   15.1250  203.1970 H     8675  MOL8675     0.2052
  39025  H        151.9710   13.6310  203.3600 H     8675  MOL8675     0.2052
  39026  O         16.6780   36.4980   41.5300 O.3   8676  MOL8676    -0.4105
  39027  H         17.3420   36.1150   42.1420 H     8676  MOL8676     0.2052
  39028  H         16.4490   37.4090   41.8510 H     8676  MOL8676     0.2052
  39029  O        149.6540  120.2760   32.2740 O.3   8677  MOL8677    -0.4105
  39030  H        149.9990  119.5350   31.7330 H     8677  MOL8677     0.2052
  39031  H        148.8370  120.6280   31.8350 H     8677  MOL8677     0.2052
  39032  O        124.4030    3.3850  188.7870 O.3   8678  MOL8678    -0.4105
  39033  H        124.9430    4.1330  189.1170 H     8678  MOL8678     0.2052
  39034  H        124.9570    2.5620  188.8230 H     8678  MOL8678     0.2052
  39035  O         50.3990   65.3800   73.5430 O.3   8679  MOL8679    -0.4105
  39036  H         50.9020   64.5830   73.2750 H     8679  MOL8679     0.2052
  39037  H         49.4380   65.2170   73.3600 H     8679  MOL8679     0.2052
  39038  O         30.6420   84.4390  154.5170 O.3   8680  MOL8680    -0.4105
  39039  H         31.1780   84.7760  155.2650 H     8680  MOL8680     0.2052
  39040  H         30.0770   83.6940  154.8500 H     8680  MOL8680     0.2052
  39041  O        138.2850   84.0540  172.5690 O.3   8681  MOL8681    -0.4105
  39042  H        139.1950   84.4170  172.5690 H     8681  MOL8681     0.2052
  39043  H        137.6480   84.8110  172.6470 H     8681  MOL8681     0.2052
  39044  O        150.7960  164.3130  161.4050 O.3   8682  MOL8682    -0.4105
  39045  H        150.2200  163.5750  161.6940 H     8682  MOL8682     0.2052
  39046  H        151.7280  163.9760  161.3510 H     8682  MOL8682     0.2052
  39047  O         41.2840  122.8820   63.3340 O.3   8683  MOL8683    -0.4105
  39048  H         41.8550  122.0860   63.3450 H     8683  MOL8683     0.2052
  39049  H         40.3800  122.6120   63.0260 H     8683  MOL8683     0.2052
  39050  O        185.6510  137.8600  241.5200 O.3   8684  MOL8684    -0.4105
  39051  H        184.6730  137.8020  241.5210 H     8684  MOL8684     0.2052
  39052  H        185.9370  138.2830  240.6690 H     8684  MOL8684     0.2052
  39053  O         69.3790   64.1700   26.8230 O.3   8685  MOL8685    -0.4105
  39054  H         68.8260   63.3660   26.9140 H     8685  MOL8685     0.2052
  39055  H         70.3120   63.8860   26.6410 H     8685  MOL8685     0.2052
  39056  O         27.2930  171.3370  151.1070 O.3   8686  MOL8686    -0.4105
  39057  H         28.1860  170.9870  150.9050 H     8686  MOL8686     0.2052
  39058  H         27.2520  171.5410  152.0770 H     8686  MOL8686     0.2052
  39059  O        176.8060  153.4520  120.8840 O.3   8687  MOL8687    -0.4105
  39060  H        176.5730  154.2770  121.3600 H     8687  MOL8687     0.2052
  39061  H        176.1040  152.7770  121.0710 H     8687  MOL8687     0.2052
  39062  O         34.2080   49.2960   57.1040 O.3   8688  MOL8688    -0.4105
  39063  H         33.2330   49.3850   57.0630 H     8688  MOL8688     0.2052
  39064  H         34.4340   48.3310   57.0470 H     8688  MOL8688     0.2052
  39065  O         31.1000  111.1710   65.7530 O.3   8689  MOL8689    -0.4105
  39066  H         31.6000  110.3280   65.7290 H     8689  MOL8689     0.2052
  39067  H         30.3190  111.0860   65.1470 H     8689  MOL8689     0.2052
  39068  O        183.6350   21.9350  125.8390 O.3   8690  MOL8690    -0.4105
  39069  H        183.1610   22.0870  124.9940 H     8690  MOL8690     0.2052
  39070  H        183.7800   22.8150  126.2750 H     8690  MOL8690     0.2052
  39071  O         34.5480   73.4420  117.5050 O.3   8691  MOL8691    -0.4105
  39072  H         35.0330   73.8550  116.7590 H     8691  MOL8691     0.2052
  39073  H         33.9030   74.1070  117.8610 H     8691  MOL8691     0.2052
  39074  O         68.0990   54.0390   50.5490 O.3   8692  MOL8692    -0.4105
  39075  H         67.6670   53.2150   50.8570 H     8692  MOL8692     0.2052
  39076  H         69.0500   54.0140   50.8280 H     8692  MOL8692     0.2052
  39077  O        120.9050  166.5150  107.5730 O.3   8693  MOL8693    -0.4105
  39078  H        121.7800  166.6200  108.0020 H     8693  MOL8693     0.2052
  39079  H        121.0270  165.9810  106.7460 H     8693  MOL8693     0.2052
  39080  O         35.9690  126.9730  165.3690 O.3   8694  MOL8694    -0.4105
  39081  H         36.6960  127.2990  165.9390 H     8694  MOL8694     0.2052
  39082  H         36.0810  125.9940  165.2510 H     8694  MOL8694     0.2052
  39083  O        133.8900    5.8800  180.4740 O.3   8695  MOL8695    -0.4105
  39084  H        133.6570    4.9280  180.4760 H     8695  MOL8695     0.2052
  39085  H        134.8590    5.9620  180.2770 H     8695  MOL8695     0.2052
  39086  O        182.5950  177.2850  176.3560 O.3   8696  MOL8696    -0.4105
  39087  H        183.2110  177.1040  177.0960 H     8696  MOL8696     0.2052
  39088  H        182.7090  176.5720  175.6750 H     8696  MOL8696     0.2052
  39089  O        183.1340  125.0390  258.6540 O.3   8697  MOL8697    -0.4105
  39090  H        183.6570  125.7070  258.1630 H     8697  MOL8697     0.2052
  39091  H        183.5820  124.1600  258.5550 H     8697  MOL8697     0.2052
  39092  O        101.4960   12.7800   39.5810 O.3   8698  MOL8698    -0.4105
  39093  H        101.4640   11.8020   39.6160 H     8698  MOL8698     0.2052
  39094  H        102.4470   13.0570   39.5160 H     8698  MOL8698     0.2052
  39095  O         69.2000   90.3350  228.8700 O.3   8699  MOL8699    -0.4105
  39096  H         69.6100   91.2230  228.8170 H     8699  MOL8699     0.2052
  39097  H         69.9140   89.6560  228.7560 H     8699  MOL8699     0.2052
  39098  O         94.2310  162.1130  123.3540 O.3   8700  MOL8700    -0.4105
  39099  H         94.9150  161.4250  123.2130 H     8700  MOL8700     0.2052
  39100  H         94.6800  162.9970  123.3810 H     8700  MOL8700     0.2052
  39101  O         65.3140  169.5240  203.6410 O.3   8701  MOL8701    -0.4105
  39102  H         64.6840  170.0140  204.2100 H     8701  MOL8701     0.2052
  39103  H         65.1730  169.8110  202.7020 H     8701  MOL8701     0.2052
  39104  O        143.4810  130.1930  278.1560 O.3   8702  MOL8702    -0.4105
  39105  H        143.2390  130.9430  278.7390 H     8702  MOL8702     0.2052
  39106  H        144.4670  130.0870  278.1790 H     8702  MOL8702     0.2052
  39107  O        104.5580    8.4360   75.2320 O.3   8703  MOL8703    -0.4105
  39108  H        104.5260    9.3680   75.5360 H     8703  MOL8703     0.2052
  39109  H        105.4710    8.2540   74.8880 H     8703  MOL8703     0.2052
  39110  O         29.5900   67.7660  260.0640 O.3   8704  MOL8704    -0.4105
  39111  H         30.1990   66.9980  260.0720 H     8704  MOL8704     0.2052
  39112  H         30.1350   68.5950  260.0500 H     8704  MOL8704     0.2052
  39113  O         71.9840   76.5150   47.6350 O.3   8705  MOL8705    -0.4105
  39114  H         71.6810   77.4460   47.6170 H     8705  MOL8705     0.2052
  39115  H         71.1850   75.9280   47.6440 H     8705  MOL8705     0.2052
  39116  O        169.3140  186.1340   73.5060 O.3   8706  MOL8706    -0.4105
  39117  H        169.1140  185.2030   73.7390 H     8706  MOL8706     0.2052
  39118  H        170.2830  186.2900   73.6530 H     8706  MOL8706     0.2052
  39119  O         22.7320   49.6030  265.4340 O.3   8707  MOL8707    -0.4105
  39120  H         22.3630   50.5080  265.3690 H     8707  MOL8707     0.2052
  39121  H         23.6840   49.6350  265.1560 H     8707  MOL8707     0.2052
  39122  O         20.2680   33.8080  205.7000 O.3   8708  MOL8708    -0.4105
  39123  H         19.9090   34.6290  206.0960 H     8708  MOL8708     0.2052
  39124  H         19.5180   33.1720  205.5690 H     8708  MOL8708     0.2052
  39125  O         14.6470   54.1040  281.8410 O.3   8709  MOL8709    -0.4105
  39126  H         14.5230   55.0070  282.2010 H     8709  MOL8709     0.2052
  39127  H         13.9060   53.9180  281.2070 H     8709  MOL8709     0.2052
  39128  O         74.0350   16.7270   36.2360 O.3   8710  MOL8710    -0.4105
  39129  H         74.3230   17.4340   35.6200 H     8710  MOL8710     0.2052
  39130  H         74.7710   16.0670   36.3180 H     8710  MOL8710     0.2052
  39131  O         43.2920   74.4050  112.0110 O.3   8711  MOL8711    -0.4105
  39132  H         44.1410   74.6480  111.5860 H     8711  MOL8711     0.2052
  39133  H         43.3760   73.4830  112.3700 H     8711  MOL8711     0.2052
  39134  O         43.5270   14.4550  105.9170 O.3   8712  MOL8712    -0.4105
  39135  H         44.1900   13.7350  105.9610 H     8712  MOL8712     0.2052
  39136  H         43.0100   14.3500  105.0760 H     8712  MOL8712     0.2052
  39137  O         45.8250   25.1730   12.0450 O.3   8713  MOL8713    -0.4105
  39138  H         46.4610   24.6940   11.4740 H     8713  MOL8713     0.2052
  39139  H         45.1960   25.6710   11.4600 H     8713  MOL8713     0.2052
  39140  O        197.5190  141.7140  139.8600 O.3   8714  MOL8714    -0.4105
  39141  H        197.6390  142.6840  139.7940 H     8714  MOL8714     0.2052
  39142  H        198.4150  141.2930  139.9180 H     8714  MOL8714     0.2052
  39143  O         40.6820    4.0470  281.0210 O.3   8715  MOL8715    -0.4105
  39144  H         40.8110    4.5610  281.8450 H     8715  MOL8715     0.2052
  39145  H         39.9340    3.4110  281.1660 H     8715  MOL8715     0.2052
  39146  O          5.3560   21.4750    8.9160 O.3   8716  MOL8716    -0.4105
  39147  H          4.6940   20.7920    8.6820 H     8716  MOL8716     0.2052
  39148  H          5.1540   22.2960    8.3960 H     8716  MOL8716     0.2052
  39149  O         49.7610   11.9200  130.1220 O.3   8717  MOL8717    -0.4105
  39150  H         49.2340   12.4680  129.5040 H     8717  MOL8717     0.2052
  39151  H         49.4750   12.1340  131.0480 H     8717  MOL8717     0.2052
  39152  O        191.6220   14.7370  256.9510 O.3   8718  MOL8718    -0.4105
  39153  H        191.1070   14.8580  257.7760 H     8718  MOL8718     0.2052
  39154  H        191.0160   14.3650  256.2580 H     8718  MOL8718     0.2052
  39155  O         51.5630   39.2430   56.6710 O.3   8719  MOL8719    -0.4105
  39156  H         51.9130   38.3270   56.6870 H     8719  MOL8719     0.2052
  39157  H         50.7600   39.2790   57.2520 H     8719  MOL8719     0.2052
  39158  O         31.9740  183.4410  179.2450 O.3   8720  MOL8720    -0.4105
  39159  H         31.4830  182.5920  179.2400 H     8720  MOL8720     0.2052
  39160  H         31.3220  184.1750  179.3870 H     8720  MOL8720     0.2052
  39161  O         29.4110  191.1650  167.0260 O.3   8721  MOL8721    -0.4105
  39162  H         29.9560  191.9790  167.0000 H     8721  MOL8721     0.2052
  39163  H         28.4650  191.4190  166.8650 H     8721  MOL8721     0.2052
  39164  O         54.3500  164.8790  249.4380 O.3   8722  MOL8722    -0.4105
  39165  H         54.1870  164.4490  250.3030 H     8722  MOL8722     0.2052
  39166  H         54.2660  165.8600  249.5580 H     8722  MOL8722     0.2052
  39167  O        121.9500  180.3260   35.8490 O.3   8723  MOL8723    -0.4105
  39168  H        122.4780  181.0440   35.4420 H     8723  MOL8723     0.2052
  39169  H        121.0000  180.4560   35.5940 H     8723  MOL8723     0.2052
  39170  O         74.4180    6.5580  283.3050 O.3   8724  MOL8724    -0.4105
  39171  H         74.1140    5.6280  283.3580 H     8724  MOL8724     0.2052
  39172  H         75.4060    6.5680  283.3970 H     8724  MOL8724     0.2052
  39173  O         26.1140  164.2220  245.0090 O.3   8725  MOL8725    -0.4105
  39174  H         25.5450  164.6550  245.6790 H     8725  MOL8725     0.2052
  39175  H         27.0600  164.4300  245.2230 H     8725  MOL8725     0.2052
  39176  O         41.0210  177.4000  258.0720 O.3   8726  MOL8726    -0.4105
  39177  H         41.9250  177.5580  257.7300 H     8726  MOL8726     0.2052
  39178  H         40.5650  178.2770  258.1620 H     8726  MOL8726     0.2052
  39179  O         39.9740   71.1070  231.2780 O.3   8727  MOL8727    -0.4105
  39180  H         39.3560   71.8060  230.9790 H     8727  MOL8727     0.2052
  39181  H         39.7070   70.2520  230.8490 H     8727  MOL8727     0.2052
  39182  O        150.7700   94.6700    5.4230 O.3   8728  MOL8728    -0.4105
  39183  H        150.3830   95.5700    5.4110 H     8728  MOL8728     0.2052
  39184  H        150.8530   94.3810    6.3690 H     8728  MOL8728     0.2052
  39185  O          3.5930   30.5930   50.0740 O.3   8729  MOL8729    -0.4105
  39186  H          4.0870   29.8970   49.5920 H     8729  MOL8729     0.2052
  39187  H          3.8300   30.5330   51.0350 H     8729  MOL8729     0.2052
  39188  O        155.1830   62.7740   54.3420 O.3   8730  MOL8730    -0.4105
  39189  H        154.4110   62.3000   54.7150 H     8730  MOL8730     0.2052
  39190  H        155.9420   62.6780   54.9750 H     8730  MOL8730     0.2052
  39191  O        168.1230   80.3650    3.5350 O.3   8731  MOL8731    -0.4105
  39192  H        168.8860   80.9410    3.3190 H     8731  MOL8731     0.2052
  39193  H        167.5490   80.8420    4.1890 H     8731  MOL8731     0.2052
  39194  O        149.1280   94.4330  255.0290 O.3   8732  MOL8732    -0.4105
  39195  H        148.9590   94.1790  254.0980 H     8732  MOL8732     0.2052
  39196  H        149.8120   93.8170  255.3990 H     8732  MOL8732     0.2052
  39197  O         45.5270  179.4400  263.8960 O.3   8733  MOL8733    -0.4105
  39198  H         46.0280  179.1580  264.6900 H     8733  MOL8733     0.2052
  39199  H         45.8340  180.3490  263.6430 H     8733  MOL8733     0.2052
  39200  O        139.8540   91.4590  175.5910 O.3   8734  MOL8734    -0.4105
  39201  H        138.9420   91.2670  175.8930 H     8734  MOL8734     0.2052
  39202  H        140.2960   90.5980  175.3690 H     8734  MOL8734     0.2052
  39203  O        144.2440   29.7010   41.2430 O.3   8735  MOL8735    -0.4105
  39204  H        144.9540   29.7550   40.5710 H     8735  MOL8735     0.2052
  39205  H        143.5730   29.0390   40.9340 H     8735  MOL8735     0.2052
  39206  O         58.7670   19.0170  282.1430 O.3   8736  MOL8736    -0.4105
  39207  H         57.8080   18.9940  281.9440 H     8736  MOL8736     0.2052
  39208  H         59.2300   18.4090  281.5110 H     8736  MOL8736     0.2052
  39209  O         53.9840   96.4630   46.4950 O.3   8737  MOL8737    -0.4105
  39210  H         54.0120   97.3910   46.8100 H     8737  MOL8737     0.2052
  39211  H         54.9060   96.0980   46.5240 H     8737  MOL8737     0.2052
  39212  O          1.2910  135.2110  135.4970 O.3   8738  MOL8738    -0.4105
  39213  H          1.7040  134.4310  135.0700 H     8738  MOL8738     0.2052
  39214  H          2.0050  135.7310  135.9500 H     8738  MOL8738     0.2052
  39215  O        173.4500   59.6530  128.4880 O.3   8739  MOL8739    -0.4105
  39216  H        174.1990   59.3830  127.9160 H     8739  MOL8739     0.2052
  39217  H        173.5170   60.6300  128.6460 H     8739  MOL8739     0.2052
  39218  O         57.1350  150.1670  239.6440 O.3   8740  MOL8740    -0.4105
  39219  H         57.6160  149.4030  239.2620 H     8740  MOL8740     0.2052
  39220  H         57.6510  150.9900  239.4420 H     8740  MOL8740     0.2052
  39221  O        181.0290  172.3950  185.3770 O.3   8741  MOL8741    -0.4105
  39222  H        181.1650  172.7430  184.4710 H     8741  MOL8741     0.2052
  39223  H        180.4400  173.0260  185.8660 H     8741  MOL8741     0.2052
  39224  O         27.1420   11.2910  131.5230 O.3   8742  MOL8742    -0.4105
  39225  H         26.2840   10.8390  131.6610 H     8742  MOL8742     0.2052
  39226  H         27.1210   12.1550  132.0120 H     8742  MOL8742     0.2052
  39227  O         44.8100   78.5450  112.3680 O.3   8743  MOL8743    -0.4105
  39228  H         45.4590   78.0980  112.9500 H     8743  MOL8743     0.2052
  39229  H         44.0970   77.8930  112.1400 H     8743  MOL8743     0.2052
  39230  O        126.9180   62.6500  223.2610 O.3   8744  MOL8744    -0.4105
  39231  H        127.2530   62.0240  223.9360 H     8744  MOL8744     0.2052
  39232  H        126.5160   62.1240  222.5220 H     8744  MOL8744     0.2052
  39233  O        198.8910  157.8020  270.7190 O.3   8745  MOL8745    -0.4105
  39234  H        198.2630  157.0810  270.5010 H     8745  MOL8745     0.2052
  39235  H        199.7160  157.3940  271.0900 H     8745  MOL8745     0.2052
  39236  O         48.1230   37.8240   33.2810 O.3   8746  MOL8746    -0.4105
  39237  H         48.2520   37.4370   32.3900 H     8746  MOL8746     0.2052
  39238  H         49.0020   37.8430   33.7410 H     8746  MOL8746     0.2052
  39239  O         76.4690   44.1150  268.5090 O.3   8747  MOL8747    -0.4105
  39240  H         75.5530   44.4570  268.5810 H     8747  MOL8747     0.2052
  39241  H         77.0600   44.8660  268.2440 H     8747  MOL8747     0.2052
  39242  O         22.8560  175.0360  158.9910 O.3   8748  MOL8748    -0.4105
  39243  H         21.9460  175.1890  158.6600 H     8748  MOL8748     0.2052
  39244  H         23.3950  174.6500  158.2530 H     8748  MOL8748     0.2052
  39245  O        172.6610  103.1180  196.8190 O.3   8749  MOL8749    -0.4105
  39246  H        173.2020  102.3010  196.7940 H     8749  MOL8749     0.2052
  39247  H        171.7420  102.8730  197.1000 H     8749  MOL8749     0.2052
  39248  O         32.1050  179.3440  279.8190 O.3   8750  MOL8750    -0.4105
  39249  H         32.9460  179.7070  279.4730 H     8750  MOL8750     0.2052
  39250  H         31.4920  180.1020  280.0060 H     8750  MOL8750     0.2052
  39251  O        138.8470    9.1050   45.2510 O.3   8751  MOL8751    -0.4105
  39252  H        139.6850    8.6010   45.3110 H     8751  MOL8751     0.2052
  39253  H        139.0670   10.0730   45.2370 H     8751  MOL8751     0.2052
  39254  O        170.1820   87.9420  170.2710 O.3   8752  MOL8752    -0.4105
  39255  H        170.4890   87.1570  170.7710 H     8752  MOL8752     0.2052
  39256  H        169.2360   87.7940  170.0100 H     8752  MOL8752     0.2052
  39257  O        142.3520   69.4630  260.4670 O.3   8753  MOL8753    -0.4105
  39258  H        142.0330   68.9340  261.2280 H     8753  MOL8753     0.2052
  39259  H        141.5810   69.9570  260.0870 H     8753  MOL8753     0.2052
  39260  O         35.8920  151.7210  155.6020 O.3   8754  MOL8754    -0.4105
  39261  H         36.2490  150.9830  156.1380 H     8754  MOL8754     0.2052
  39262  H         35.7430  152.4970  156.2020 H     8754  MOL8754     0.2052
  39263  O         38.7380  139.3710  135.3590 O.3   8755  MOL8755    -0.4105
  39264  H         37.7630  139.3300  135.4460 H     8755  MOL8755     0.2052
  39265  H         39.1030  138.4620  135.5180 H     8755  MOL8755     0.2052
  39266  O        120.5690   67.7970  236.8750 O.3   8756  MOL8756    -0.4105
  39267  H        120.0380   67.0270  236.5810 H     8756  MOL8756     0.2052
  39268  H        121.4530   67.7550  236.4260 H     8756  MOL8756     0.2052
  39269  O         73.3540   28.0000  139.4280 O.3   8757  MOL8757    -0.4105
  39270  H         72.9330   28.8850  139.4340 H     8757  MOL8757     0.2052
  39271  H         74.3390   28.1250  139.4360 H     8757  MOL8757     0.2052
  39272  O         93.9830   14.1610   11.2750 O.3   8758  MOL8758    -0.4105
  39273  H         93.9740   13.3160   10.7790 H     8758  MOL8758     0.2052
  39274  H         93.1740   14.1940   11.8490 H     8758  MOL8758     0.2052
  39275  O        134.5460   75.0220   76.5840 O.3   8759  MOL8759    -0.4105
  39276  H        133.9370   75.3730   75.9020 H     8759  MOL8759     0.2052
  39277  H        135.2550   75.6980   76.7460 H     8759  MOL8759     0.2052
  39278  O        140.2500   33.6030   40.1570 O.3   8760  MOL8760    -0.4105
  39279  H        140.1040   33.4660   41.1160 H     8760  MOL8760     0.2052
  39280  H        139.8470   34.4740   39.9030 H     8760  MOL8760     0.2052
  39281  O        172.8910   81.9330   35.3760 O.3   8761  MOL8761    -0.4105
  39282  H        172.6810   82.6720   34.7670 H     8761  MOL8761     0.2052
  39283  H        172.5770   81.0890   34.9590 H     8761  MOL8761     0.2052
  39284  O        198.0780   39.8560   27.6360 O.3   8762  MOL8762    -0.4105
  39285  H        197.1820   39.7580   27.2510 H     8762  MOL8762     0.2052
  39286  H        198.6740   39.1880   27.2080 H     8762  MOL8762     0.2052
  39287  O         47.6830   24.1580  239.4810 O.3   8763  MOL8763    -0.4105
  39288  H         47.6570   23.7740  238.5790 H     8763  MOL8763     0.2052
  39289  H         47.0580   23.6450  240.0550 H     8763  MOL8763     0.2052
  39290  O        196.8710   75.5020  268.9560 O.3   8764  MOL8764    -0.4105
  39291  H        195.9230   75.3760  269.1710 H     8764  MOL8764     0.2052
  39292  H        197.4110   75.1170  269.6940 H     8764  MOL8764     0.2052
  39293  O         73.9870    8.0270  212.3710 O.3   8765  MOL8765    -0.4105
  39294  H         73.0220    7.8570  212.3900 H     8765  MOL8765     0.2052
  39295  H         74.1290    9.0090  212.3720 H     8765  MOL8765     0.2052
  39296  O         13.5160   73.0250  254.3010 O.3   8766  MOL8766    -0.4105
  39297  H         13.5690   72.3850  255.0420 H     8766  MOL8766     0.2052
  39298  H         13.9290   73.8780  254.5980 H     8766  MOL8766     0.2052
  39299  O         76.4530   25.9740  141.7570 O.3   8767  MOL8767    -0.4105
  39300  H         77.2170   26.2870  142.2830 H     8767  MOL8767     0.2052
  39301  H         76.7680   25.7850  140.8350 H     8767  MOL8767     0.2052
  39302  O         28.8450   38.3750  134.9300 O.3   8768  MOL8768    -0.4105
  39303  H         28.5060   39.2590  135.1820 H     8768  MOL8768     0.2052
  39304  H         29.8210   38.4530  134.7640 H     8768  MOL8768     0.2052
  39305  O        124.0200  135.5000  176.2180 O.3   8769  MOL8769    -0.4105
  39306  H        124.6350  135.1240  175.5540 H     8769  MOL8769     0.2052
  39307  H        123.3190  134.8250  176.4100 H     8769  MOL8769     0.2052
  39308  O        144.9160   98.9630   53.8080 O.3   8770  MOL8770    -0.4105
  39309  H        145.2650   98.0960   53.5130 H     8770  MOL8770     0.2052
  39310  H        145.6850   99.5390   54.0560 H     8770  MOL8770     0.2052
  39311  O         80.7660  139.9650  176.2080 O.3   8771  MOL8771    -0.4105
  39312  H         80.0430  139.6790  176.8050 H     8771  MOL8771     0.2052
  39313  H         80.6030  140.9110  175.9550 H     8771  MOL8771     0.2052
  39314  O         28.6570    2.9260  248.7800 O.3   8772  MOL8772    -0.4105
  39315  H         29.1120    3.0710  247.9250 H     8772  MOL8772     0.2052
  39316  H         27.8070    3.4370  248.7700 H     8772  MOL8772     0.2052
  39317  O        151.7030   60.0850   52.5290 O.3   8773  MOL8773    -0.4105
  39318  H        152.1770   59.6800   53.2850 H     8773  MOL8773     0.2052
  39319  H        150.7360   59.8820   52.6240 H     8773  MOL8773     0.2052
  39320  O        164.3730   95.7180  229.3170 O.3   8774  MOL8774    -0.4105
  39321  H        163.7140   95.0250  229.1010 H     8774  MOL8774     0.2052
  39322  H        164.7520   95.5160  230.2120 H     8774  MOL8774     0.2052
  39323  O         63.8580   33.7520  154.6630 O.3   8775  MOL8775    -0.4105
  39324  H         64.4780   34.3960  155.0640 H     8775  MOL8775     0.2052
  39325  H         64.3660   32.9300  154.4380 H     8775  MOL8775     0.2052
  39326  O          5.6590  145.6310  184.9450 O.3   8776  MOL8776    -0.4105
  39327  H          5.9110  146.5640  184.7810 H     8776  MOL8776     0.2052
  39328  H          4.6690  145.5830  185.0070 H     8776  MOL8776     0.2052
  39329  O         92.8030   69.0000    9.4600 O.3   8777  MOL8777    -0.4105
  39330  H         92.2790   69.5300    8.8240 H     8777  MOL8777     0.2052
  39331  H         93.6540   68.7390    9.0210 H     8777  MOL8777     0.2052
  39332  O         79.4820   38.2290  277.3310 O.3   8778  MOL8778    -0.4105
  39333  H         79.8630   39.0320  277.7430 H     8778  MOL8778     0.2052
  39334  H         80.2150   37.7340  276.8790 H     8778  MOL8778     0.2052
  39335  O        173.6830   58.7330    6.2260 O.3   8779  MOL8779    -0.4105
  39336  H        173.2740   58.1850    5.5240 H     8779  MOL8779     0.2052
  39337  H        174.3180   58.1640    6.7340 H     8779  MOL8779     0.2052
  39338  O        136.6750  154.9280  271.2250 O.3   8780  MOL8780    -0.4105
  39339  H        136.7910  155.4820  272.0250 H     8780  MOL8780     0.2052
  39340  H        137.3260  155.2320  270.5400 H     8780  MOL8780     0.2052
  39341  O         11.5510   94.8570  290.9450 O.3   8781  MOL8781    -0.4105
  39342  H         12.1980   95.0640  290.2390 H     8781  MOL8781     0.2052
  39343  H         11.5720   95.5930  291.6100 H     8781  MOL8781     0.2052
  39344  O        177.3090  162.2510  106.1500 O.3   8782  MOL8782    -0.4105
  39345  H        178.1440  161.7490  106.2540 H     8782  MOL8782     0.2052
  39346  H        177.4040  163.1140  106.6320 H     8782  MOL8782     0.2052
  39347  O         90.5880  183.2420  243.1090 O.3   8783  MOL8783    -0.4105
  39348  H         91.5260  183.5100  243.2010 H     8783  MOL8783     0.2052
  39349  H         90.0280  183.8990  243.5990 H     8783  MOL8783     0.2052
  39350  O         53.5830  180.7840  215.1700 O.3   8784  MOL8784    -0.4105
  39351  H         53.4310  181.7300  215.3790 H     8784  MOL8784     0.2052
  39352  H         52.7250  180.2990  215.2890 H     8784  MOL8784     0.2052
  39353  O         46.9050   38.8340  260.8810 O.3   8785  MOL8785    -0.4105
  39354  H         46.7440   39.5980  261.4740 H     8785  MOL8785     0.2052
  39355  H         46.8610   39.1550  259.9430 H     8785  MOL8785     0.2052
  39356  O         80.5310  126.4620   71.3190 O.3   8786  MOL8786    -0.4105
  39357  H         80.7200  127.3660   70.9910 H     8786  MOL8786     0.2052
  39358  H         81.2680  126.1920   71.9260 H     8786  MOL8786     0.2052
  39359  O         93.6520   95.2370  253.7780 O.3   8787  MOL8787    -0.4105
  39360  H         94.3530   94.5520  253.8020 H     8787  MOL8787     0.2052
  39361  H         92.7790   94.7830  253.6530 H     8787  MOL8787     0.2052
  39362  O         14.7360   80.1590  158.3950 O.3   8788  MOL8788    -0.4105
  39363  H         15.6800   80.4050  158.3000 H     8788  MOL8788     0.2052
  39364  H         14.6850   79.3260  158.9320 H     8788  MOL8788     0.2052
  39365  O         16.7370  148.4440  236.2390 O.3   8789  MOL8789    -0.4105
  39366  H         16.5690  149.4060  236.3200 H     8789  MOL8789     0.2052
  39367  H         17.7180  148.3020  236.1960 H     8789  MOL8789     0.2052
  39368  O        194.5240  185.4980  171.5610 O.3   8790  MOL8790    -0.4105
  39369  H        195.1160  186.1190  171.0870 H     8790  MOL8790     0.2052
  39370  H        193.6520  185.9480  171.7050 H     8790  MOL8790     0.2052
  39371  O         29.0300  122.8830  141.8530 O.3   8791  MOL8791    -0.4105
  39372  H         28.1530  122.6070  142.1930 H     8791  MOL8791     0.2052
  39373  H         29.1760  122.4420  140.9770 H     8791  MOL8791     0.2052
  39374  O        127.0120  197.9640   69.8920 O.3   8792  MOL8792    -0.4105
  39375  H        127.7360  198.0730   70.5430 H     8792  MOL8792     0.2052
  39376  H        127.2670  198.4430   69.0610 H     8792  MOL8792     0.2052
  39377  O         28.3950   86.3890  270.0610 O.3   8793  MOL8793    -0.4105
  39378  H         28.4440   85.7370  269.3310 H     8793  MOL8793     0.2052
  39379  H         27.5230   86.2750  270.5210 H     8793  MOL8793     0.2052
  39380  O        114.7910   11.2520  223.4940 O.3   8794  MOL8794    -0.4105
  39381  H        114.2460   10.4720  223.7270 H     8794  MOL8794     0.2052
  39382  H        114.2440   12.0680  223.6380 H     8794  MOL8794     0.2052
  39383  O        116.2300  191.6610    2.9530 O.3   8795  MOL8795    -0.4105
  39384  H        116.6910  191.0150    2.3780 H     8795  MOL8795     0.2052
  39385  H        116.9090  192.1180    3.5140 H     8795  MOL8795     0.2052
  39386  O         78.9680    3.3090  178.7460 O.3   8796  MOL8796    -0.4105
  39387  H         78.8670    2.3630  178.9850 H     8796  MOL8796     0.2052
  39388  H         79.8930    3.4480  178.4160 H     8796  MOL8796     0.2052
  39389  O        129.3960   21.4380   43.2530 O.3   8797  MOL8797    -0.4105
  39390  H        129.4570   21.6630   42.3010 H     8797  MOL8797     0.2052
  39391  H        128.6740   21.9870   43.6560 H     8797  MOL8797     0.2052
  39392  O         20.4010   36.0650   32.2740 O.3   8798  MOL8798    -0.4105
  39393  H         20.4670   36.9940   31.9680 H     8798  MOL8798     0.2052
  39394  H         19.5750   35.6700   31.8920 H     8798  MOL8798     0.2052
  39395  O        196.1040   20.1470  146.6040 O.3   8799  MOL8799    -0.4105
  39396  H        195.7590   20.3070  145.7010 H     8799  MOL8799     0.2052
  39397  H        195.6480   20.7730  147.2250 H     8799  MOL8799     0.2052
  39398  O        171.7080  172.7020  258.1980 O.3   8800  MOL8800    -0.4105
  39399  H        170.8980  172.6720  258.7480 H     8800  MOL8800     0.2052
  39400  H        171.6650  171.9590  257.5410 H     8800  MOL8800     0.2052
  39401  O        195.3860   85.0930  180.6380 O.3   8801  MOL8801    -0.4105
  39402  H        195.5840   85.7110  179.9040 H     8801  MOL8801     0.2052
  39403  H        195.3110   85.6200  181.4760 H     8801  MOL8801     0.2052
  39404  O         97.1610   32.7480   33.1070 O.3   8802  MOL8802    -0.4105
  39405  H         96.2110   32.5580   32.9620 H     8802  MOL8802     0.2052
  39406  H         97.2730   33.7320   33.1800 H     8802  MOL8802     0.2052
  39407  O         10.9050   55.7290  246.6110 O.3   8803  MOL8803    -0.4105
  39408  H         10.6730   55.2170  245.8080 H     8803  MOL8803     0.2052
  39409  H         11.7850   56.1620  246.4600 H     8803  MOL8803     0.2052
  39410  O        175.0570  159.6540  230.3510 O.3   8804  MOL8804    -0.4105
  39411  H        175.0040  158.6780  230.2700 H     8804  MOL8804     0.2052
  39412  H        174.9700  160.0450  229.4430 H     8804  MOL8804     0.2052
  39413  O        113.9300  199.3200  190.4820 O.3   8805  MOL8805    -0.4105
  39414  H        114.4150  198.5270  190.7930 H     8805  MOL8805     0.2052
  39415  H        114.5950  199.9980  190.1960 H     8805  MOL8805     0.2052
  39416  O        169.1490  165.6090  287.1730 O.3   8806  MOL8806    -0.4105
  39417  H        168.1720  165.6850  287.1300 H     8806  MOL8806     0.2052
  39418  H        169.3800  164.6530  287.3040 H     8806  MOL8806     0.2052
  39419  O        195.4810  196.6700   49.6910 O.3   8807  MOL8807    -0.4105
  39420  H        196.2480  197.1810   50.0260 H     8807  MOL8807     0.2052
  39421  H        195.6960  196.3520   48.7760 H     8807  MOL8807     0.2052
  39422  O         82.5120  188.4280  111.7540 O.3   8808  MOL8808    -0.4105
  39423  H         82.9400  187.6930  112.2390 H     8808  MOL8808     0.2052
  39424  H         83.0100  188.5730  110.9070 H     8808  MOL8808     0.2052
  39425  O        169.9490  159.4230  147.9970 O.3   8809  MOL8809    -0.4105
  39426  H        170.0900  159.6460  147.0530 H     8809  MOL8809     0.2052
  39427  H        169.3880  158.6050  148.0420 H     8809  MOL8809     0.2052
  39428  O          4.2650  195.8930   96.8620 O.3   8810  MOL8810    -0.4105
  39429  H          4.4660  196.8360   97.0380 H     8810  MOL8810     0.2052
  39430  H          3.7940  195.8330   95.9910 H     8810  MOL8810     0.2052
  39431  O        152.9480   33.8290  257.4660 O.3   8811  MOL8811    -0.4105
  39432  H        152.8770   34.7960  257.6060 H     8811  MOL8811     0.2052
  39433  H        152.2110   33.3880  257.9640 H     8811  MOL8811     0.2052
  39434  O          3.8800  107.6300   25.6490 O.3   8812  MOL8812    -0.4105
  39435  H          4.1020  108.5150   25.2930 H     8812  MOL8812     0.2052
  39436  H          4.2120  106.9460   25.0110 H     8812  MOL8812     0.2052
  39437  O        103.8120  144.9320   54.9970 O.3   8813  MOL8813    -0.4105
  39438  H        104.1150  144.0200   55.1910 H     8813  MOL8813     0.2052
  39439  H        104.6130  145.5040   54.8720 H     8813  MOL8813     0.2052
  39440  O        173.4520  163.3400  138.8330 O.3   8814  MOL8814    -0.4105
  39441  H        174.0350  163.2660  139.6170 H     8814  MOL8814     0.2052
  39442  H        172.8530  162.5490  138.8150 H     8814  MOL8814     0.2052
  39443  O        139.7860  113.7180   18.8450 O.3   8815  MOL8815    -0.4105
  39444  H        139.9080  113.2810   17.9760 H     8815  MOL8815     0.2052
  39445  H        138.8200  113.9180   18.9590 H     8815  MOL8815     0.2052
  39446  O        125.3920  143.4160  177.7750 O.3   8816  MOL8816    -0.4105
  39447  H        124.8830  143.3620  176.9390 H     8816  MOL8816     0.2052
  39448  H        124.8190  143.0750  178.5100 H     8816  MOL8816     0.2052
  39449  O         37.1870   50.8220  173.5760 O.3   8817  MOL8817    -0.4105
  39450  H         36.4230   50.2870  173.2760 H     8817  MOL8817     0.2052
  39451  H         37.9350   50.2040  173.7860 H     8817  MOL8817     0.2052
  39452  O         82.0310   24.6110  163.5260 O.3   8818  MOL8818    -0.4105
  39453  H         81.7010   25.5320  163.5970 H     8818  MOL8818     0.2052
  39454  H         82.9490   24.5810  163.9030 H     8818  MOL8818     0.2052
  39455  O         98.0520  166.8080   82.7070 O.3   8819  MOL8819    -0.4105
  39456  H         97.2580  166.2890   82.9520 H     8819  MOL8819     0.2052
  39457  H         97.7520  167.6450   82.2670 H     8819  MOL8819     0.2052
  39458  O         18.4430  171.3290  129.7380 O.3   8820  MOL8820    -0.4105
  39459  H         18.2050  172.2660  129.5780 H     8820  MOL8820     0.2052
  39460  H         19.1680  171.3040  130.4150 H     8820  MOL8820     0.2052
  39461  O         40.5680   27.8540  255.7350 O.3   8821  MOL8821    -0.4105
  39462  H         41.2190   27.4510  255.1230 H     8821  MOL8821     0.2052
  39463  H         40.8510   27.6540  256.6650 H     8821  MOL8821     0.2052
  39464  O        158.3650   44.0830   33.4420 O.3   8822  MOL8822    -0.4105
  39465  H        159.2990   44.3570   33.5620 H     8822  MOL8822     0.2052
  39466  H        157.7990   44.6440   34.0330 H     8822  MOL8822     0.2052
  39467  O        160.2400  148.5210   96.2820 O.3   8823  MOL8823    -0.4105
  39468  H        161.0080  148.2210   95.7530 H     8823  MOL8823     0.2052
  39469  H        159.8270  147.7260   96.7100 H     8823  MOL8823     0.2052
  39470  O         59.0610   78.0760  234.5290 O.3   8824  MOL8824    -0.4105
  39471  H         59.8290   77.8460  235.0930 H     8824  MOL8824     0.2052
  39472  H         58.2500   78.0920  235.1010 H     8824  MOL8824     0.2052
  39473  O         10.0040   64.6930  174.7100 O.3   8825  MOL8825    -0.4105
  39474  H          9.0630   64.9120  174.8740 H     8825  MOL8825     0.2052
  39475  H         10.0560   63.7480  174.4130 H     8825  MOL8825     0.2052
  39476  O        127.5410  115.5120  276.1180 O.3   8826  MOL8826    -0.4105
  39477  H        128.0370  115.3030  275.2990 H     8826  MOL8826     0.2052
  39478  H        127.2350  116.4540  276.0630 H     8826  MOL8826     0.2052
  39479  O         84.9750    0.9320  148.9100 O.3   8827  MOL8827    -0.4105
  39480  H         84.8590    0.6880  149.8530 H     8827  MOL8827     0.2052
  39481  H         85.4110    1.8230  148.8720 H     8827  MOL8827     0.2052
  39482  O         39.9760  132.8040  233.6540 O.3   8828  MOL8828    -0.4105
  39483  H         39.7040  132.9730  234.5800 H     8828  MOL8828     0.2052
  39484  H         39.4450  132.0400  233.3090 H     8828  MOL8828     0.2052
  39485  O        130.6150   19.0720  123.7580 O.3   8829  MOL8829    -0.4105
  39486  H        131.0400   18.1920  123.8340 H     8829  MOL8829     0.2052
  39487  H        129.6400   18.9370  123.6370 H     8829  MOL8829     0.2052
  39488  O        142.9580  106.4640  273.5650 O.3   8830  MOL8830    -0.4105
  39489  H        142.6810  107.2370  273.0310 H     8830  MOL8830     0.2052
  39490  H        142.2460  105.7750  273.5060 H     8830  MOL8830     0.2052
  39491  O         43.3840   82.0840  297.2350 O.3   8831  MOL8831    -0.4105
  39492  H         42.5270   81.6170  297.1380 H     8831  MOL8831     0.2052
  39493  H         43.1990   83.0510  297.3520 H     8831  MOL8831     0.2052
  39494  O        115.6570   68.0940  175.1410 O.3   8832  MOL8832    -0.4105
  39495  H        115.0080   68.7480  174.8080 H     8832  MOL8832     0.2052
  39496  H        115.2710   67.6520  175.9410 H     8832  MOL8832     0.2052
  39497  O         42.5560  152.8540  135.9130 O.3   8833  MOL8833    -0.4105
  39498  H         43.2860  152.2020  135.8670 H     8833  MOL8833     0.2052
  39499  H         41.7000  152.3570  135.9810 H     8833  MOL8833     0.2052
  39500  O         28.6100   80.5550   73.5960 O.3   8834  MOL8834    -0.4105
  39501  H         27.6850   80.2290   73.6050 H     8834  MOL8834     0.2052
  39502  H         29.1430   79.9600   73.0080 H     8834  MOL8834     0.2052
  39503  O        170.9980   10.8810  195.2790 O.3   8835  MOL8835    -0.4105
  39504  H        171.8380   10.8680  194.7750 H     8835  MOL8835     0.2052
  39505  H        170.4440   10.1150  194.9780 H     8835  MOL8835     0.2052
  39506  O        173.6820   88.9310   16.3690 O.3   8836  MOL8836    -0.4105
  39507  H        174.5500   88.7520   15.9500 H     8836  MOL8836     0.2052
  39508  H        173.8440   89.2560   17.2930 H     8836  MOL8836     0.2052
  39509  O        155.9500  162.3970  294.7570 O.3   8837  MOL8837    -0.4105
  39510  H        156.5930  162.0360  295.4020 H     8837  MOL8837     0.2052
  39511  H        156.3440  163.2110  294.3470 H     8837  MOL8837     0.2052
  39512  O          2.1760  150.7390  256.1410 O.3   8838  MOL8838    -0.4105
  39513  H          2.6770  151.5090  255.8000 H     8838  MOL8838     0.2052
  39514  H          2.5290  149.9210  255.7040 H     8838  MOL8838     0.2052
  39515  O         36.9330   71.7350  165.2650 O.3   8839  MOL8839    -0.4105
  39516  H         36.7700   71.8800  164.3100 H     8839  MOL8839     0.2052
  39517  H         37.7970   72.1620  165.5010 H     8839  MOL8839     0.2052
  39518  O        191.2200   32.9230  267.6860 O.3   8840  MOL8840    -0.4105
  39519  H        190.8720   32.4260  266.9160 H     8840  MOL8840     0.2052
  39520  H        191.3290   33.8730  267.4190 H     8840  MOL8840     0.2052
  39521  O         13.0510   98.1240   59.3260 O.3   8841  MOL8841    -0.4105
  39522  H         12.3630   98.1820   60.0210 H     8841  MOL8841     0.2052
  39523  H         13.6270   97.3400   59.5240 H     8841  MOL8841     0.2052
  39524  O          7.1410   41.2540   76.2020 O.3   8842  MOL8842    -0.4105
  39525  H          7.5640   42.1310   76.3140 H     8842  MOL8842     0.2052
  39526  H          7.7220   40.5720   76.6290 H     8842  MOL8842     0.2052
  39527  O        197.0440   59.9690   52.6990 O.3   8843  MOL8843    -0.4105
  39528  H        196.2750   60.1420   53.2810 H     8843  MOL8843     0.2052
  39529  H        197.1510   58.9860   52.6110 H     8843  MOL8843     0.2052
  39530  O         21.5740   71.2290  163.1570 O.3   8844  MOL8844    -0.4105
  39531  H         21.7440   71.0620  162.2060 H     8844  MOL8844     0.2052
  39532  H         22.3290   70.8520  163.6780 H     8844  MOL8844     0.2052
  39533  O         99.2680  136.6740   65.3300 O.3   8845  MOL8845    -0.4105
  39534  H         98.7980  135.8480   65.5690 H     8845  MOL8845     0.2052
  39535  H         98.6340  137.4310   65.4250 H     8845  MOL8845     0.2052
  39536  O         33.1700  104.1430   69.0190 O.3   8846  MOL8846    -0.4105
  39537  H         34.0910  104.0730   68.6910 H     8846  MOL8846     0.2052
  39538  H         32.6230  103.4550   68.5590 H     8846  MOL8846     0.2052
  39539  O         62.4270  113.2330   46.5890 O.3   8847  MOL8847    -0.4105
  39540  H         63.2520  113.6190   46.2290 H     8847  MOL8847     0.2052
  39541  H         62.6620  112.4110   47.0930 H     8847  MOL8847     0.2052
  39542  O        176.7950   42.5640    9.9750 O.3   8848  MOL8848    -0.4105
  39543  H        176.3150   43.1460    9.3490 H     8848  MOL8848     0.2052
  39544  H        177.3940   41.9720    9.4500 H     8848  MOL8848     0.2052
  39545  O         21.8100   39.1430   60.0670 O.3   8849  MOL8849    -0.4105
  39546  H         22.4240   38.4830   59.6820 H     8849  MOL8849     0.2052
  39547  H         20.9090   38.9910   59.6800 H     8849  MOL8849     0.2052
  39548  O        189.0480   90.1530  167.7740 O.3   8850  MOL8850    -0.4105
  39549  H        189.9890   90.1160  168.0440 H     8850  MOL8850     0.2052
  39550  H        188.7480   89.2310  167.5650 H     8850  MOL8850     0.2052
  39551  O         23.7010  183.6450   21.3000 O.3   8851  MOL8851    -0.4105
  39552  H         22.9220  184.2350   21.2270 H     8851  MOL8851     0.2052
  39553  H         24.4960  184.1400   20.9720 H     8851  MOL8851     0.2052
  39554  O          5.0810  158.6120   75.5230 O.3   8852  MOL8852    -0.4105
  39555  H          5.1850  157.6400   75.5800 H     8852  MOL8852     0.2052
  39556  H          4.1190  158.8290   75.6340 H     8852  MOL8852     0.2052
  39557  O          1.5570   72.1360  128.3910 O.3   8853  MOL8853    -0.4105
  39558  H          0.7820   72.0760  127.7940 H     8853  MOL8853     0.2052
  39559  H          2.3690   71.9000  127.8720 H     8853  MOL8853     0.2052
  39560  O         39.0150   23.9720  196.7490 O.3   8854  MOL8854    -0.4105
  39561  H         39.2490   24.8030  197.2130 H     8854  MOL8854     0.2052
  39562  H         38.1300   23.6700  197.0830 H     8854  MOL8854     0.2052
  39563  O         22.1020   50.3510   77.4910 O.3   8855  MOL8855    -0.4105
  39564  H         22.8290   51.0000   77.3860 H     8855  MOL8855     0.2052
  39565  H         22.2960   49.7930   78.2880 H     8855  MOL8855     0.2052
  39566  O         25.6260   57.7160  105.1650 O.3   8856  MOL8856    -0.4105
  39567  H         26.2840   58.4410  105.2000 H     8856  MOL8856     0.2052
  39568  H         24.7800   58.0820  104.7990 H     8856  MOL8856     0.2052
  39569  O        192.5980  115.0250  242.1930 O.3   8857  MOL8857    -0.4105
  39570  H        192.5000  114.5700  241.3310 H     8857  MOL8857     0.2052
  39571  H        193.5670  115.1300  242.3800 H     8857  MOL8857     0.2052
  39572  O        156.2820  100.8490   28.6560 O.3   8858  MOL8858    -0.4105
  39573  H        155.7040  101.5740   28.9740 H     8858  MOL8858     0.2052
  39574  H        156.1030  100.0440   29.2080 H     8858  MOL8858     0.2052
  39575  O        197.7760   29.7660   95.6670 O.3   8859  MOL8859    -0.4105
  39576  H        197.9700   30.7150   95.5170 H     8859  MOL8859     0.2052
  39577  H        198.4050   29.4260   96.3550 H     8859  MOL8859     0.2052
  39578  O         65.7810  197.5420    9.4820 O.3   8860  MOL8860    -0.4105
  39579  H         66.3850  196.7700    9.4940 H     8860  MOL8860     0.2052
  39580  H         64.8480  197.2050    9.4550 H     8860  MOL8860     0.2052
  39581  O         69.4150   77.9850  276.4160 O.3   8861  MOL8861    -0.4105
  39582  H         68.9180   77.3560  276.9800 H     8861  MOL8861     0.2052
  39583  H         69.4800   77.6000  275.5040 H     8861  MOL8861     0.2052
  39584  O        184.7000  105.7560  221.8790 O.3   8862  MOL8862    -0.4105
  39585  H        185.4180  106.1020  222.4490 H     8862  MOL8862     0.2052
  39586  H        185.0780  105.5670  220.9820 H     8862  MOL8862     0.2052
  39587  O        105.9500  152.9290  165.0600 O.3   8863  MOL8863    -0.4105
  39588  H        106.2800  153.3620  165.8740 H     8863  MOL8863     0.2052
  39589  H        105.2470  152.2780  165.3170 H     8863  MOL8863     0.2052
  39590  O        156.8350   90.5790  218.3040 O.3   8864  MOL8864    -0.4105
  39591  H        155.8900   90.3460  218.4130 H     8864  MOL8864     0.2052
  39592  H        157.3460   90.1600  219.0450 H     8864  MOL8864     0.2052
  39593  O        108.5640   90.7250   37.9080 O.3   8865  MOL8865    -0.4105
  39594  H        107.8200   91.2560   38.2600 H     8865  MOL8865     0.2052
  39595  H        108.2000   89.8670   37.5670 H     8865  MOL8865     0.2052
  39596  O        173.0460  157.6550  274.5440 O.3   8866  MOL8866    -0.4105
  39597  H        172.6690  157.6630  275.4490 H     8866  MOL8866     0.2052
  39598  H        172.3830  158.0620  273.9290 H     8866  MOL8866     0.2052
  39599  O        114.5330  168.0350   55.3230 O.3   8867  MOL8867    -0.4105
  39600  H        114.1250  167.4530   54.6480 H     8867  MOL8867     0.2052
  39601  H        115.4790  167.7590   55.4410 H     8867  MOL8867     0.2052
  39602  O        147.8580   66.3260  204.0530 O.3   8868  MOL8868    -0.4105
  39603  H        148.6580   65.8480  203.7500 H     8868  MOL8868     0.2052
  39604  H        147.1020   65.6840  204.0760 H     8868  MOL8868     0.2052
  39605  O         24.0780  190.6940  286.4480 O.3   8869  MOL8869    -0.4105
  39606  H         24.7480  189.9900  286.5740 H     8869  MOL8869     0.2052
  39607  H         24.5450  191.5690  286.4380 H     8869  MOL8869     0.2052
  39608  O         75.7530   92.3770  245.6360 O.3   8870  MOL8870    -0.4105
  39609  H         76.2790   92.9720  246.2090 H     8870  MOL8870     0.2052
  39610  H         75.7250   92.7670  244.7240 H     8870  MOL8870     0.2052
  39611  O        194.9940  137.2100   41.8600 O.3   8871  MOL8871    -0.4105
  39612  H        195.7740  137.3030   42.4460 H     8871  MOL8871     0.2052
  39613  H        194.1930  137.0730   42.4290 H     8871  MOL8871     0.2052
  39614  O         63.4710  173.2330  181.3150 O.3   8872  MOL8872    -0.4105
  39615  H         63.6690  174.1930  181.2950 H     8872  MOL8872     0.2052
  39616  H         64.3320  172.7400  181.3240 H     8872  MOL8872     0.2052
  39617  O         52.3440   37.8450  295.4960 O.3   8873  MOL8873    -0.4105
  39618  H         52.8690   38.2640  294.7830 H     8873  MOL8873     0.2052
  39619  H         51.4310   38.2330  295.4780 H     8873  MOL8873     0.2052
  39620  O         71.8460  174.3520   45.6810 O.3   8874  MOL8874    -0.4105
  39621  H         72.6780  173.9520   46.0100 H     8874  MOL8874     0.2052
  39622  H         71.1460  173.6480   45.6700 H     8874  MOL8874     0.2052
  39623  O         96.4790   93.8030   10.6590 O.3   8875  MOL8875    -0.4105
  39624  H         96.1710   94.0570   11.5540 H     8875  MOL8875     0.2052
  39625  H         97.2170   93.1480   10.7590 H     8875  MOL8875     0.2052
  39626  O         89.7500   20.3030  296.0610 O.3   8876  MOL8876    -0.4105
  39627  H         89.3720   19.5140  296.5030 H     8876  MOL8876     0.2052
  39628  H         89.4750   20.2850  295.1070 H     8876  MOL8876     0.2052
  39629  O        182.9610  140.0050  122.1890 O.3   8877  MOL8877    -0.4105
  39630  H        183.5550  140.7700  122.3370 H     8877  MOL8877     0.2052
  39631  H        182.0310  140.3420  122.1200 H     8877  MOL8877     0.2052
  39632  O         93.6600   49.2520  293.6600 O.3   8878  MOL8878    -0.4105
  39633  H         94.4280   48.6640  293.8220 H     8878  MOL8878     0.2052
  39634  H         92.9350   48.7100  293.2550 H     8878  MOL8878     0.2052
  39635  O         94.2290  184.3830   56.9370 O.3   8879  MOL8879    -0.4105
  39636  H         93.7170  184.3740   56.1010 H     8879  MOL8879     0.2052
  39637  H         93.5940  184.5150   57.6880 H     8879  MOL8879     0.2052
  39638  O        152.1190  177.4710  233.5470 O.3   8880  MOL8880    -0.4105
  39639  H        151.4540  176.8300  233.8750 H     8880  MOL8880     0.2052
  39640  H        152.9620  176.9800  233.3670 H     8880  MOL8880     0.2052
  39641  O         40.6600   23.9230   17.8940 O.3   8881  MOL8881    -0.4105
  39642  H         41.2080   24.7350   17.9420 H     8881  MOL8881     0.2052
  39643  H         41.2410   23.1450   18.0960 H     8881  MOL8881     0.2052
  39644  O         74.2140  104.2600    0.9060 O.3   8882  MOL8882    -0.4105
  39645  H         74.5970  103.5670    1.4820 H     8882  MOL8882     0.2052
  39646  H         74.8700  105.0010    0.8330 H     8882  MOL8882     0.2052
  39647  O        117.8910  127.0340  248.1520 O.3   8883  MOL8883    -0.4105
  39648  H        118.8690  127.0950  248.1170 H     8883  MOL8883     0.2052
  39649  H        117.5160  127.9250  247.9290 H     8883  MOL8883     0.2052
  39650  O        102.7210  112.1890   74.8570 O.3   8884  MOL8884    -0.4105
  39651  H        102.2480  111.4980   75.3660 H     8884  MOL8884     0.2052
  39652  H        103.4890  111.7630   74.3950 H     8884  MOL8884     0.2052
  39653  O        165.8050   78.1910   85.8160 O.3   8885  MOL8885    -0.4105
  39654  H        165.9300   79.1530   85.6790 H     8885  MOL8885     0.2052
  39655  H        166.6990   77.7610   85.8400 H     8885  MOL8885     0.2052
  39656  O         32.3510   45.5160  150.4790 O.3   8886  MOL8886    -0.4105
  39657  H         32.0840   46.2720  151.0430 H     8886  MOL8886     0.2052
  39658  H         32.0270   45.6880  149.5570 H     8886  MOL8886     0.2052
  39659  O        153.0730   59.1230  222.2230 O.3   8887  MOL8887    -0.4105
  39660  H        153.6100   58.3240  222.4060 H     8887  MOL8887     0.2052
  39661  H        153.0160   59.2400  221.2390 H     8887  MOL8887     0.2052
  39662  O          8.4650  140.5650  295.0870 O.3   8888  MOL8888    -0.4105
  39663  H          9.1110  141.1430  294.6290 H     8888  MOL8888     0.2052
  39664  H          8.1040  141.0610  295.8670 H     8888  MOL8888     0.2052
  39665  O        132.4530   40.3490  229.9360 O.3   8889  MOL8889    -0.4105
  39666  H        132.7930   40.5490  230.8330 H     8889  MOL8889     0.2052
  39667  H        132.8390   41.0100  229.3040 H     8889  MOL8889     0.2052
  39668  O        141.5500   96.7620   35.6450 O.3   8890  MOL8890    -0.4105
  39669  H        140.9010   97.4200   35.3200 H     8890  MOL8890     0.2052
  39670  H        142.2660   96.6690   34.9650 H     8890  MOL8890     0.2052
  39671  O         89.8690  160.9100  145.4360 O.3   8891  MOL8891    -0.4105
  39672  H         90.1500  161.8250  145.2230 H     8891  MOL8891     0.2052
  39673  H         90.0590  160.7430  146.3960 H     8891  MOL8891     0.2052
  39674  O        146.3780    5.5060   13.6730 O.3   8892  MOL8892    -0.4105
  39675  H        147.3100    5.5490   13.3710 H     8892  MOL8892     0.2052
  39676  H        146.1130    4.5510   13.7240 H     8892  MOL8892     0.2052
  39677  O        126.5370  186.2700  240.8290 O.3   8893  MOL8893    -0.4105
  39678  H        127.3930  185.8710  240.5670 H     8893  MOL8893     0.2052
  39679  H        126.6470  186.6770  241.7270 H     8893  MOL8893     0.2052
  39680  O        136.3210    2.8010   90.7940 O.3   8894  MOL8894    -0.4105
  39681  H        135.9320    3.7000   90.8020 H     8894  MOL8894     0.2052
  39682  H        137.0650    2.7900   90.1370 H     8894  MOL8894     0.2052
  39683  O         37.0010   38.4890   14.2910 O.3   8895  MOL8895    -0.4105
  39684  H         37.6170   38.5280   15.0520 H     8895  MOL8895     0.2052
  39685  H         37.4010   37.9020   13.5980 H     8895  MOL8895     0.2052
  39686  O        146.6010   16.8440  125.6040 O.3   8896  MOL8896    -0.4105
  39687  H        146.9770   17.4820  124.9630 H     8896  MOL8896     0.2052
  39688  H        145.6120   16.8700  125.5240 H     8896  MOL8896     0.2052
  39689  O         54.0220  147.8170  221.4770 O.3   8897  MOL8897    -0.4105
  39690  H         54.2750  147.1120  222.1100 H     8897  MOL8897     0.2052
  39691  H         54.4560  148.6620  221.7640 H     8897  MOL8897     0.2052
  39692  O        127.4490  138.5700  165.8070 O.3   8898  MOL8898    -0.4105
  39693  H        127.4830  138.9170  164.8910 H     8898  MOL8898     0.2052
  39694  H        127.5340  137.5820  165.7680 H     8898  MOL8898     0.2052
  39695  O        101.3960  195.6390   77.1970 O.3   8899  MOL8899    -0.4105
  39696  H        101.5970  196.5960   77.2610 H     8899  MOL8899     0.2052
  39697  H        100.4100  195.5310   77.1600 H     8899  MOL8899     0.2052
  39698  O        108.6120  133.3520   21.5610 O.3   8900  MOL8900    -0.4105
  39699  H        108.5730  132.4300   21.2330 H     8900  MOL8900     0.2052
  39700  H        108.0130  133.4270   22.3480 H     8900  MOL8900     0.2052
  39701  O         93.8110   61.0420  298.4300 O.3   8901  MOL8901    -0.4105
  39702  H         92.9340   61.4200  298.2100 H     8901  MOL8901     0.2052
  39703  H         93.7900   60.0700  298.2280 H     8901  MOL8901     0.2052
  39704  O         91.4450   30.7590  149.9280 O.3   8902  MOL8902    -0.4105
  39705  H         91.0270   31.6190  149.7120 H     8902  MOL8902     0.2052
  39706  H         92.2210   30.9320  150.5220 H     8902  MOL8902     0.2052
  39707  O        155.0770   37.6080   72.5440 O.3   8903  MOL8903    -0.4105
  39708  H        155.9870   37.9700   72.5560 H     8903  MOL8903     0.2052
  39709  H        154.4400   38.3690   72.5770 H     8903  MOL8903     0.2052
  39710  O        171.4340  148.4470  272.6350 O.3   8904  MOL8904    -0.4105
  39711  H        171.3560  147.6490  273.1980 H     8904  MOL8904     0.2052
  39712  H        171.6000  149.2280  273.2250 H     8904  MOL8904     0.2052
  39713  O        100.5220  127.1510  281.5520 O.3   8905  MOL8905    -0.4105
  39714  H        101.0460  126.3240  281.6060 H     8905  MOL8905     0.2052
  39715  H        101.1460  127.9030  281.3820 H     8905  MOL8905     0.2052
  39716  O        153.6170   11.2020   86.4810 O.3   8906  MOL8906    -0.4105
  39717  H        154.0900   12.0190   86.2180 H     8906  MOL8906     0.2052
  39718  H        152.6860   11.2600   86.1420 H     8906  MOL8906     0.2052
  39719  O         15.7690   56.9540  204.8740 O.3   8907  MOL8907    -0.4105
  39720  H         15.3060   57.8100  204.7570 H     8907  MOL8907     0.2052
  39721  H         16.7170   57.1420  205.0980 H     8907  MOL8907     0.2052
  39722  O        142.6180  157.1560  279.7920 O.3   8908  MOL8908    -0.4105
  39723  H        143.0760  157.8870  279.3280 H     8908  MOL8908     0.2052
  39724  H        143.2980  156.6280  280.2860 H     8908  MOL8908     0.2052
  39725  O        163.2770   35.9320  105.6450 O.3   8909  MOL8909    -0.4105
  39726  H        163.5400   35.4550  106.4600 H     8909  MOL8909     0.2052
  39727  H        163.3630   36.9060  105.8140 H     8909  MOL8909     0.2052
  39728  O        138.4130  159.0790  151.2770 O.3   8910  MOL8910    -0.4105
  39729  H        138.8210  158.5400  150.5680 H     8910  MOL8910     0.2052
  39730  H        137.4730  159.2690  151.0210 H     8910  MOL8910     0.2052
  39731  O         77.7610  144.3000  227.5610 O.3   8911  MOL8911    -0.4105
  39732  H         78.6010  144.0120  227.9760 H     8911  MOL8911     0.2052
  39733  H         77.8230  145.2730  227.3770 H     8911  MOL8911     0.2052
  39734  O        173.4920    9.3520  158.2970 O.3   8912  MOL8912    -0.4105
  39735  H        172.6080    9.0920  158.6300 H     8912  MOL8912     0.2052
  39736  H        173.9840    8.5270  158.0470 H     8912  MOL8912     0.2052
  39737  O        189.2690   68.7330   36.9520 O.3   8913  MOL8913    -0.4105
  39738  H        188.4610   68.8720   37.4880 H     8913  MOL8913     0.2052
  39739  H        189.5400   67.7820   37.0400 H     8913  MOL8913     0.2052
  39740  O         98.1530  136.9910  213.4560 O.3   8914  MOL8914    -0.4105
  39741  H         99.0360  137.0950  213.8680 H     8914  MOL8914     0.2052
  39742  H         98.1070  137.5860  212.6640 H     8914  MOL8914     0.2052
  39743  O        125.2330  197.7740  110.1050 O.3   8915  MOL8915    -0.4105
  39744  H        126.1970  197.8160  109.9340 H     8915  MOL8915     0.2052
  39745  H        124.7970  198.5070  109.5980 H     8915  MOL8915     0.2052
  39746  O        117.6150  114.6020  244.8850 O.3   8916  MOL8916    -0.4105
  39747  H        118.0440  114.0280  245.5540 H     8916  MOL8916     0.2052
  39748  H        117.4220  115.4790  245.3060 H     8916  MOL8916     0.2052
  39749  O          9.8440   86.8360  198.7660 O.3   8917  MOL8917    -0.4105
  39750  H         10.0220   85.9040  198.5210 H     8917  MOL8917     0.2052
  39751  H          8.8800   86.9200  198.9880 H     8917  MOL8917     0.2052
  39752  O        198.0980  188.9010   85.1940 O.3   8918  MOL8918    -0.4105
  39753  H        198.1560  187.9280   85.2950 H     8918  MOL8918     0.2052
  39754  H        197.1640  189.1330   84.9480 H     8918  MOL8918     0.2052
  39755  O         16.9370   84.9010  208.1100 O.3   8919  MOL8919    -0.4105
  39756  H         16.5110   85.7580  207.9010 H     8919  MOL8919     0.2052
  39757  H         17.3320   84.9640  209.0190 H     8919  MOL8919     0.2052
  39758  O          2.9960  124.3770  262.3170 O.3   8920  MOL8920    -0.4105
  39759  H          3.0570  123.4640  262.6670 H     8920  MOL8920     0.2052
  39760  H          2.0580  124.5400  262.0350 H     8920  MOL8920     0.2052
  39761  O        155.1110  105.1700  246.2860 O.3   8921  MOL8921    -0.4105
  39762  H        154.9640  104.9600  247.2320 H     8921  MOL8921     0.2052
  39763  H        154.2800  104.9560  245.7880 H     8921  MOL8921     0.2052
  39764  O         42.2920  139.5980    0.1190 O.3   8922  MOL8922    -0.4105
  39765  H         41.9340  139.8250    1.0020 H     8922  MOL8922     0.2052
  39766  H         43.2380  139.8950    0.0820 H     8922  MOL8922     0.2052
  39767  O         63.6350   38.9530  278.7560 O.3   8923  MOL8923    -0.4105
  39768  H         64.0710   38.2720  278.2020 H     8923  MOL8923     0.2052
  39769  H         62.8180   39.2600  278.2840 H     8923  MOL8923     0.2052
  39770  O         55.7360   32.7040  250.0360 O.3   8924  MOL8924    -0.4105
  39771  H         55.0500   33.2640  250.4560 H     8924  MOL8924     0.2052
  39772  H         56.6020   33.1860  250.0810 H     8924  MOL8924     0.2052
  39773  O         18.8700   92.1510  294.9700 O.3   8925  MOL8925    -0.4105
  39774  H         18.1240   92.7790  294.8740 H     8925  MOL8925     0.2052
  39775  H         19.6410   92.6420  295.3560 H     8925  MOL8925     0.2052
  39776  O        117.6570  121.9190  253.5870 O.3   8926  MOL8926    -0.4105
  39777  H        118.2050  122.0590  254.3870 H     8926  MOL8926     0.2052
  39778  H        118.1350  122.3100  252.8110 H     8926  MOL8926     0.2052
  39779  O         79.3370   58.9680    6.6940 O.3   8927  MOL8927    -0.4105
  39780  H         79.9920   59.6940    6.6230 H     8927  MOL8927     0.2052
  39781  H         79.2650   58.5270    5.8080 H     8927  MOL8927     0.2052
  39782  O        175.4540  115.4860   75.3180 O.3   8928  MOL8928    -0.4105
  39783  H        174.8240  115.3710   74.5760 H     8928  MOL8928     0.2052
  39784  H        175.6560  116.4540   75.4070 H     8928  MOL8928     0.2052
  39785  O        155.9190   27.3820  179.8260 O.3   8929  MOL8929    -0.4105
  39786  H        155.7600   26.4890  180.1960 H     8929  MOL8929     0.2052
  39787  H        155.5280   28.0500  180.4480 H     8929  MOL8929     0.2052
  39788  O        115.8970   99.1160  176.3770 O.3   8930  MOL8930    -0.4105
  39789  H        116.2810   99.9960  176.5720 H     8930  MOL8930     0.2052
  39790  H        116.6380   98.4570  176.3340 H     8930  MOL8930     0.2052
  39791  O        117.1620   78.9970   46.5070 O.3   8931  MOL8931    -0.4105
  39792  H        117.5420   79.0390   45.6050 H     8931  MOL8931     0.2052
  39793  H        117.8990   78.8110   47.1460 H     8931  MOL8931     0.2052
  39794  O        179.0560   40.9360   68.9030 O.3   8932  MOL8932    -0.4105
  39795  H        179.2430   40.6350   69.8170 H     8932  MOL8932     0.2052
  39796  H        179.8060   41.5150   68.6080 H     8932  MOL8932     0.2052
  39797  O          2.5430  111.9420   37.2590 O.3   8933  MOL8933    -0.4105
  39798  H          2.8170  112.8430   37.5290 H     8933  MOL8933     0.2052
  39799  H          3.3310  111.4800   36.8720 H     8933  MOL8933     0.2052
  39800  O        104.2360  183.9870   68.4630 O.3   8934  MOL8934    -0.4105
  39801  H        105.0580  184.5050   68.5930 H     8934  MOL8934     0.2052
  39802  H        104.4470  183.0280   68.6060 H     8934  MOL8934     0.2052
  39803  O         99.8470  120.5160   74.3140 O.3   8935  MOL8935    -0.4105
  39804  H         99.7880  119.6920   74.8400 H     8935  MOL8935     0.2052
  39805  H         99.9010  121.2820   74.9420 H     8935  MOL8935     0.2052
  39806  O         15.9520   40.4380  105.4650 O.3   8936  MOL8936    -0.4105
  39807  H         16.8970   40.6130  105.6600 H     8936  MOL8936     0.2052
  39808  H         15.8760   39.5210  105.0950 H     8936  MOL8936     0.2052
  39809  O          8.3390   31.7090  192.8420 O.3   8937  MOL8937    -0.4105
  39810  H          7.8780   30.8550  192.9790 H     8937  MOL8937     0.2052
  39811  H          9.3010   31.5210  192.6860 H     8937  MOL8937     0.2052
  39812  O        129.5360  142.1190   51.7740 O.3   8938  MOL8938    -0.4105
  39813  H        129.3950  143.0660   51.9830 H     8938  MOL8938     0.2052
  39814  H        128.7420  141.7880   51.2810 H     8938  MOL8938     0.2052
  39815  O        156.2620  173.6480  230.0750 O.3   8939  MOL8939    -0.4105
  39816  H        156.6230  172.8340  229.6650 H     8939  MOL8939     0.2052
  39817  H        155.4440  173.4030  230.5810 H     8939  MOL8939     0.2052
  39818  O        147.0810   17.5520  108.0280 O.3   8940  MOL8940    -0.4105
  39819  H        146.9580   18.5000  108.2430 H     8940  MOL8940     0.2052
  39820  H        147.7370   17.4840  107.2870 H     8940  MOL8940     0.2052
  39821  O        144.9190   11.4870  177.7260 O.3   8941  MOL8941    -0.4105
  39822  H        145.0690   12.4260  177.9670 H     8941  MOL8941     0.2052
  39823  H        145.7920   11.0160  177.7570 H     8941  MOL8941     0.2052
  39824  O         77.5900   35.4540  169.7110 O.3   8942  MOL8942    -0.4105
  39825  H         77.5320   34.7380  170.3780 H     8942  MOL8942     0.2052
  39826  H         76.6690   35.6920  169.4290 H     8942  MOL8942     0.2052
  39827  O         21.7100   99.1410   74.1980 O.3   8943  MOL8943    -0.4105
  39828  H         22.3020   98.3630   74.2660 H     8943  MOL8943     0.2052
  39829  H         20.9580   98.9070   73.5950 H     8943  MOL8943     0.2052
  39830  O        133.7800   38.0960   10.5560 O.3   8944  MOL8944    -0.4105
  39831  H        134.1860   37.8370   11.4090 H     8944  MOL8944     0.2052
  39832  H        133.5220   39.0530   10.6110 H     8944  MOL8944     0.2052
  39833  O         72.9430  143.1420   22.3850 O.3   8945  MOL8945    -0.4105
  39834  H         72.2140  143.6440   22.8060 H     8945  MOL8945     0.2052
  39835  H         73.6580  143.7830   22.1360 H     8945  MOL8945     0.2052
  39836  O         19.5290  164.9600  152.6660 O.3   8946  MOL8946    -0.4105
  39837  H         19.5480  164.0240  152.3750 H     8946  MOL8946     0.2052
  39838  H         18.6860  165.3690  152.3410 H     8946  MOL8946     0.2052
  39839  O        147.2210  193.0040  141.0530 O.3   8947  MOL8947    -0.4105
  39840  H        147.2670  193.1750  140.0890 H     8947  MOL8947     0.2052
  39841  H        148.1460  192.8850  141.3910 H     8947  MOL8947     0.2052
  39842  O         57.2110   10.9020  273.1320 O.3   8948  MOL8948    -0.4105
  39843  H         57.0360   10.8390  274.0950 H     8948  MOL8948     0.2052
  39844  H         58.0000   11.4880  272.9980 H     8948  MOL8948     0.2052
  39845  O         33.7060  120.5870  179.3610 O.3   8949  MOL8949    -0.4105
  39846  H         34.3470  119.9000  179.6420 H     8949  MOL8949     0.2052
  39847  H         33.1480  120.8290  180.1450 H     8949  MOL8949     0.2052
  39848  O        154.1870   66.7910   62.1430 O.3   8950  MOL8950    -0.4105
  39849  H        154.1300   65.8130   62.1340 H     8950  MOL8950     0.2052
  39850  H        155.1450   67.0470   62.1370 H     8950  MOL8950     0.2052
  39851  O         41.8720  163.9460  201.2110 O.3   8951  MOL8951    -0.4105
  39852  H         41.2970  163.1730  201.3910 H     8951  MOL8951     0.2052
  39853  H         41.2920  164.7330  201.0410 H     8951  MOL8951     0.2052
  39854  O        167.5060   13.6550  121.7180 O.3   8952  MOL8952    -0.4105
  39855  H        167.9220   14.4110  121.2530 H     8952  MOL8952     0.2052
  39856  H        167.9590   13.5410  122.5930 H     8952  MOL8952     0.2052
  39857  O         91.9640   10.6010   85.3450 O.3   8953  MOL8953    -0.4105
  39858  H         92.0490   11.5130   85.6930 H     8953  MOL8953     0.2052
  39859  H         92.3050    9.9730   86.0330 H     8953  MOL8953     0.2052
  39860  O         14.3120  101.2680   90.4100 O.3   8954  MOL8954    -0.4105
  39861  H         13.9010  101.2930   89.5200 H     8954  MOL8954     0.2052
  39862  H         14.2760  100.3350   90.7430 H     8954  MOL8954     0.2052
  39863  O        198.1540   86.7970   88.0630 O.3   8955  MOL8955    -0.4105
  39864  H        197.8780   87.7210   87.8930 H     8955  MOL8955     0.2052
  39865  H        199.1460   86.7670   88.0850 H     8955  MOL8955     0.2052
  39866  O         56.4050   41.1900  164.6760 O.3   8956  MOL8956    -0.4105
  39867  H         56.7440   41.7640  165.3940 H     8956  MOL8956     0.2052
  39868  H         56.0610   40.3530  165.0830 H     8956  MOL8956     0.2052
  39869  O         72.0540  193.3230   79.0380 O.3   8957  MOL8957    -0.4105
  39870  H         72.8560  193.2760   79.5990 H     8957  MOL8957     0.2052
  39871  H         72.1700  194.0660   78.3910 H     8957  MOL8957     0.2052
  39872  O        127.5520   75.9410   44.1520 O.3   8958  MOL8958    -0.4105
  39873  H        127.3060   75.0090   43.9770 H     8958  MOL8958     0.2052
  39874  H        127.3430   76.4750   43.3420 H     8958  MOL8958     0.2052
  39875  O         49.0340   46.4090  289.5720 O.3   8959  MOL8959    -0.4105
  39876  H         49.9660   46.7130  289.5540 H     8959  MOL8959     0.2052
  39877  H         48.4900   47.1020  290.0270 H     8959  MOL8959     0.2052
  39878  O        153.6230   79.4540   79.4950 O.3   8960  MOL8960    -0.4105
  39879  H        153.7830   80.1400   78.8140 H     8960  MOL8960     0.2052
  39880  H        152.7070   79.0940   79.3640 H     8960  MOL8960     0.2052
  39881  O        113.5720   20.3190   79.6250 O.3   8961  MOL8961    -0.4105
  39882  H        113.3230   19.4560   79.2340 H     8961  MOL8961     0.2052
  39883  H        114.2590   20.1570   80.3230 H     8961  MOL8961     0.2052
  39884  O         49.8060  179.1040   25.4120 O.3   8962  MOL8962    -0.4105
  39885  H         49.2420  178.5000   25.9380 H     8962  MOL8962     0.2052
  39886  H         50.4320  179.5620   26.0310 H     8962  MOL8962     0.2052
  39887  O        158.0680   16.6290  207.2860 O.3   8963  MOL8963    -0.4105
  39888  H        159.0090   16.3970  207.4320 H     8963  MOL8963     0.2052
  39889  H        157.9520   16.8680  206.3300 H     8963  MOL8963     0.2052
  39890  O        104.5900    3.1930  133.2020 O.3   8964  MOL8964    -0.4105
  39891  H        105.2920    3.6610  132.7030 H     8964  MOL8964     0.2052
  39892  H        104.8700    2.2490  133.3210 H     8964  MOL8964     0.2052
  39893  O        177.0320   96.7560  283.0490 O.3   8965  MOL8965    -0.4105
  39894  H        176.7090   96.5520  283.9520 H     8965  MOL8965     0.2052
  39895  H        177.6330   97.5440  283.1060 H     8965  MOL8965     0.2052
  39896  O         56.3760  105.1870  188.8320 O.3   8966  MOL8966    -0.4105
  39897  H         56.0340  105.2010  187.9140 H     8966  MOL8966     0.2052
  39898  H         55.6450  105.4720  189.4400 H     8966  MOL8966     0.2052
  39899  O        117.4550  107.8460  226.6890 O.3   8967  MOL8967    -0.4105
  39900  H        118.3140  107.9320  227.1530 H     8967  MOL8967     0.2052
  39901  H        116.9170  108.6580  226.8810 H     8967  MOL8967     0.2052
  39902  O        123.0910   38.3940  226.9230 O.3   8968  MOL8968    -0.4105
  39903  H        123.7950   39.0750  226.9620 H     8968  MOL8968     0.2052
  39904  H        122.2630   38.7800  227.3110 H     8968  MOL8968     0.2052
  39905  O        171.6760   67.1470   65.1870 O.3   8969  MOL8969    -0.4105
  39906  H        171.3400   66.2340   65.0710 H     8969  MOL8969     0.2052
  39907  H        170.9000   67.7660   65.1890 H     8969  MOL8969     0.2052
  39908  O        129.8120    4.1760  173.7990 O.3   8970  MOL8970    -0.4105
  39909  H        130.7810    4.3200  173.8020 H     8970  MOL8970     0.2052
  39910  H        129.6430    3.1990  173.8070 H     8970  MOL8970     0.2052
  39911  O         82.6270  162.1760  158.2820 O.3   8971  MOL8971    -0.4105
  39912  H         83.0830  161.3520  158.0110 H     8971  MOL8971     0.2052
  39913  H         83.3130  162.8790  158.4200 H     8971  MOL8971     0.2052
  39914  O        152.6940   40.2060  275.8710 O.3   8972  MOL8972    -0.4105
  39915  H        153.4960   40.6660  276.1970 H     8972  MOL8972     0.2052
  39916  H        151.9740   40.3230  276.5450 H     8972  MOL8972     0.2052
  39917  O         92.4290   67.9950   20.0770 O.3   8973  MOL8973    -0.4105
  39918  H         92.4560   68.9610   20.2400 H     8973  MOL8973     0.2052
  39919  H         93.3230   67.7090   19.7570 H     8973  MOL8973     0.2052
  39920  O        192.0340  172.4260  114.5500 O.3   8974  MOL8974    -0.4105
  39921  H        192.8480  172.4630  114.0050 H     8974  MOL8974     0.2052
  39922  H        191.5110  171.6290  114.2730 H     8974  MOL8974     0.2052
  39923  O        138.3550  121.9610   24.7180 O.3   8975  MOL8975    -0.4105
  39924  H        138.5720  122.7500   24.1790 H     8975  MOL8975     0.2052
  39925  H        138.2420  121.1880   24.1060 H     8975  MOL8975     0.2052
  39926  O        112.6560   66.1300  230.8340 O.3   8976  MOL8976    -0.4105
  39927  H        111.9400   65.9060  231.4650 H     8976  MOL8976     0.2052
  39928  H        113.0900   66.9680  231.1420 H     8976  MOL8976     0.2052
  39929  O        113.8140   45.5050  228.8620 O.3   8977  MOL8977    -0.4105
  39930  H        113.0690   45.7870  228.2910 H     8977  MOL8977     0.2052
  39931  H        114.2770   44.7490  228.4170 H     8977  MOL8977     0.2052
  39932  O        144.7750   96.4390   65.7740 O.3   8978  MOL8978    -0.4105
  39933  H        144.1360   96.7660   65.1070 H     8978  MOL8978     0.2052
  39934  H        144.6420   95.4610   65.8790 H     8978  MOL8978     0.2052
  39935  O        173.8550  146.5550  161.4330 O.3   8979  MOL8979    -0.4105
  39936  H        174.1150  147.4400  161.1030 H     8979  MOL8979     0.2052
  39937  H        172.8650  146.5270  161.5000 H     8979  MOL8979     0.2052
  39938  O        192.3470  123.7360    1.3480 O.3   8980  MOL8980    -0.4105
  39939  H        191.8270  123.2930    2.0500 H     8980  MOL8980     0.2052
  39940  H        193.3030  123.7230    1.6140 H     8980  MOL8980     0.2052
  39941  O        170.4740   25.0890  277.6210 O.3   8981  MOL8981    -0.4105
  39942  H        170.4120   24.1110  277.5970 H     8981  MOL8981     0.2052
  39943  H        171.4230   25.3430  277.4840 H     8981  MOL8981     0.2052
  39944  O        137.7790  170.8010  237.0980 O.3   8982  MOL8982    -0.4105
  39945  H        137.1600  171.3040  237.6670 H     8982  MOL8982     0.2052
  39946  H        138.5450  171.3910  236.8740 H     8982  MOL8982     0.2052
  39947  O        129.7530    4.9730   31.0290 O.3   8983  MOL8983    -0.4105
  39948  H        129.9660    5.9270   30.9490 H     8983  MOL8983     0.2052
  39949  H        129.8210    4.7190   31.9850 H     8983  MOL8983     0.2052
  39950  O         62.0550   56.3630  254.1370 O.3   8984  MOL8984    -0.4105
  39951  H         62.2600   57.0960  254.7540 H     8984  MOL8984     0.2052
  39952  H         62.8320   55.7460  254.1170 H     8984  MOL8984     0.2052
  39953  O        190.3510   45.8240  233.6440 O.3   8985  MOL8985    -0.4105
  39954  H        189.3780   45.7190  233.6010 H     8985  MOL8985     0.2052
  39955  H        190.7490   45.3520  232.8680 H     8985  MOL8985     0.2052
  39956  O        153.0470   30.4630  151.5460 O.3   8986  MOL8986    -0.4105
  39957  H        153.9890   30.7350  151.5250 H     8986  MOL8986     0.2052
  39958  H        152.4880   31.2820  151.5640 H     8986  MOL8986     0.2052
  39959  O        159.8590   34.4410   67.1300 O.3   8987  MOL8987    -0.4105
  39960  H        159.9970   35.4110   67.1190 H     8987  MOL8987     0.2052
  39961  H        158.8820   34.2660   67.1230 H     8987  MOL8987     0.2052
  39962  O         10.5300  152.0770   80.8360 O.3   8988  MOL8988    -0.4105
  39963  H         11.0710  152.5140   80.1450 H     8988  MOL8988     0.2052
  39964  H         10.3720  152.7300   81.5660 H     8988  MOL8988     0.2052
  39965  O        160.6970    8.9310  199.4510 O.3   8989  MOL8989    -0.4105
  39966  H        161.3220    8.1760  199.4670 H     8989  MOL8989     0.2052
  39967  H        161.1270    9.7000  199.9090 H     8989  MOL8989     0.2052
  39968  O        154.8780  149.6230  111.4340 O.3   8990  MOL8990    -0.4105
  39969  H        154.6830  149.0260  112.1870 H     8990  MOL8990     0.2052
  39970  H        155.8420  149.5400  111.2130 H     8990  MOL8990     0.2052
  39971  O        162.4770   60.8000   11.8670 O.3   8991  MOL8991    -0.4105
  39972  H        162.3340   59.8950   12.2160 H     8991  MOL8991     0.2052
  39973  H        163.3950   61.0860   12.1130 H     8991  MOL8991     0.2052
  39974  O         66.7580   39.8280  204.2030 O.3   8992  MOL8992    -0.4105
  39975  H         67.2940   39.0620  204.4950 H     8992  MOL8992     0.2052
  39976  H         66.1660   40.0970  204.9520 H     8992  MOL8992     0.2052
  39977  O        163.3420   72.3800   12.5390 O.3   8993  MOL8993    -0.4105
  39978  H        163.8490   71.5890   12.2600 H     8993  MOL8993     0.2052
  39979  H        163.9790   73.1300   12.6630 H     8993  MOL8993     0.2052
  39980  O         81.5320  116.5960  250.0200 O.3   8994  MOL8994    -0.4105
  39981  H         80.8370  116.6610  249.3320 H     8994  MOL8994     0.2052
  39982  H         82.2640  117.2220  249.7820 H     8994  MOL8994     0.2052
  39983  O         68.1690   80.9450  199.9290 O.3   8995  MOL8995    -0.4105
  39984  H         68.5890   80.3670  200.6000 H     8995  MOL8995     0.2052
  39985  H         67.7520   80.3680  199.2390 H     8995  MOL8995     0.2052
  39986  O          0.8120  155.8370   77.6360 O.3   8996  MOL8996    -0.4105
  39987  H          0.4530  156.7480   77.6230 H     8996  MOL8996     0.2052
  39988  H          0.0570  155.2070   77.7720 H     8996  MOL8996     0.2052
  39989  O        149.4320  191.0350  288.2550 O.3   8997  MOL8997    -0.4105
  39990  H        149.8020  191.5060  289.0300 H     8997  MOL8997     0.2052
  39991  H        148.8550  190.2980  288.5850 H     8997  MOL8997     0.2052
  39992  O        124.4320  113.7970  251.8060 O.3   8998  MOL8998    -0.4105
  39993  H        124.3800  112.9640  251.2930 H     8998  MOL8998     0.2052
  39994  H        125.3440  114.1730  251.6960 H     8998  MOL8998     0.2052
  39995  O        195.6890  134.4310  123.2430 O.3   8999  MOL8999    -0.4105
  39996  H        196.2790  133.9230  123.8390 H     8999  MOL8999     0.2052
  39997  H        196.2460  134.8430  122.5330 H     8999  MOL8999     0.2052
  39998  O        180.8630  187.4930    6.5180 O.3   9000  MOL9000    -0.4105
  39999  H        181.5980  187.7190    7.1250 H     9000  MOL9000     0.2052
  40000  H        180.3010  188.3020    6.3960 H     9000  MOL9000     0.2052
  40001  O        128.3290   54.2870  250.9930 O.3   9001  MOL9001    -0.4105
  40002  H        127.3870   54.2320  250.7270 H     9001  MOL9001     0.2052
  40003  H        128.4090   53.9470  251.9220 H     9001  MOL9001     0.2052
  40004  O        176.2010   96.3130   28.9000 O.3   9002  MOL9002    -0.4105
  40005  H        175.6530   97.1000   29.1000 H     9002  MOL9002     0.2052
  40006  H        176.0460   96.0580   27.9540 H     9002  MOL9002     0.2052
  40007  O        167.7610  151.6750   81.5250 O.3   9003  MOL9003    -0.4105
  40008  H        166.8660  152.0740   81.5120 H     9003  MOL9003     0.2052
  40009  H        167.7710  150.9560   82.2080 H     9003  MOL9003     0.2052
  40010  O         24.8000  158.7790  147.1130 O.3   9004  MOL9004    -0.4105
  40011  H         24.5970  157.9440  146.6420 H     9004  MOL9004     0.2052
  40012  H         25.7870  158.8770  147.1590 H     9004  MOL9004     0.2052
  40013  O         98.1810  116.1310  224.6710 O.3   9005  MOL9005    -0.4105
  40014  H         98.3790  116.8940  224.0890 H     9005  MOL9005     0.2052
  40015  H         98.7060  115.3520  224.3510 H     9005  MOL9005     0.2052
  40016  O        151.6830  120.6060  256.3630 O.3   9006  MOL9006    -0.4105
  40017  H        150.9380  120.5290  256.9950 H     9006  MOL9006     0.2052
  40018  H        152.0580  119.6990  256.2140 H     9006  MOL9006     0.2052
  40019  O         64.4600  149.6610   44.4730 O.3   9007  MOL9007    -0.4105
  40020  H         63.6140  149.9820   44.8490 H     9007  MOL9007     0.2052
  40021  H         64.2550  148.9650   43.7960 H     9007  MOL9007     0.2052
  40022  O         98.0980  134.2000   52.6790 O.3   9008  MOL9008    -0.4105
  40023  H         97.9210  133.4930   52.0230 H     9008  MOL9008     0.2052
  40024  H         98.3000  135.0370   52.1870 H     9008  MOL9008     0.2052
  40025  O         12.1110   52.1960   60.4810 O.3   9009  MOL9009    -0.4105
  40026  H         11.8440   53.0060   60.9640 H     9009  MOL9009     0.2052
  40027  H         12.0480   52.3800   59.5080 H     9009  MOL9009     0.2052
  40028  O         85.8880   13.7180   11.8040 O.3   9010  MOL9010    -0.4105
  40029  H         85.2050   13.4320   11.1620 H     9010  MOL9010     0.2052
  40030  H         85.8440   14.7060   11.8860 H     9010  MOL9010     0.2052
  40031  O         75.8500  104.5380  266.7180 O.3   9011  MOL9011    -0.4105
  40032  H         76.3740  105.3650  266.7670 H     9011  MOL9011     0.2052
  40033  H         74.8940  104.7670  266.8520 H     9011  MOL9011     0.2052
  40034  O        114.6370   11.6680   80.1320 O.3   9012  MOL9012    -0.4105
  40035  H        114.4270   11.4410   81.0620 H     9012  MOL9012     0.2052
  40036  H        115.4800   12.1930   80.1240 H     9012  MOL9012     0.2052
  40037  O         16.9540  194.4330   55.3140 O.3   9013  MOL9013    -0.4105
  40038  H         16.3780  194.4500   56.1070 H     9013  MOL9013     0.2052
  40039  H         16.3870  194.5920   54.5150 H     9013  MOL9013     0.2052
  40040  O         70.9110   86.8320  182.2960 O.3   9014  MOL9014    -0.4105
  40041  H         71.5430   87.5730  182.4020 H     9014  MOL9014     0.2052
  40042  H         71.4290   85.9870  182.2440 H     9014  MOL9014     0.2052
  40043  O         38.0040    7.4420  196.8340 O.3   9015  MOL9015    -0.4105
  40044  H         38.5620    7.0590  196.1250 H     9015  MOL9015     0.2052
  40045  H         37.4230    6.7230  197.1950 H     9015  MOL9015     0.2052
  40046  O        193.8100   53.4160  158.7290 O.3   9016  MOL9016    -0.4105
  40047  H        192.8820   53.1050  158.6920 H     9016  MOL9016     0.2052
  40048  H        194.3920   52.7040  158.3560 H     9016  MOL9016     0.2052
  40049  O        109.2310  118.7630   17.3310 O.3   9017  MOL9017    -0.4105
  40050  H        108.3820  118.2890   17.4560 H     9017  MOL9017     0.2052
  40051  H        109.8890  118.3940   17.9760 H     9017  MOL9017     0.2052
  40052  O         99.2970   27.5450  137.1480 O.3   9018  MOL9018    -0.4105
  40053  H         99.2940   26.5790  137.3150 H     9018  MOL9018     0.2052
  40054  H         98.4100   27.9070  137.4040 H     9018  MOL9018     0.2052
  40055  O        127.9140   15.1820  241.6910 O.3   9019  MOL9019    -0.4105
  40056  H        127.0510   14.7380  241.5530 H     9019  MOL9019     0.2052
  40057  H        127.7420   16.0940  242.0430 H     9019  MOL9019     0.2052
  40058  O        121.3340  190.3370  274.6480 O.3   9020  MOL9020    -0.4105
  40059  H        120.4910  190.2170  275.1320 H     9020  MOL9020     0.2052
  40060  H        121.2950  191.2030  274.1660 H     9020  MOL9020     0.2052
  40061  O         40.4080   20.6680  156.2160 O.3   9021  MOL9021    -0.4105
  40062  H         41.0600   21.4000  156.2270 H     9021  MOL9021     0.2052
  40063  H         40.8680   19.8380  156.5050 H     9021  MOL9021     0.2052
  40064  O          5.3470  186.4240   24.6520 O.3   9022  MOL9022    -0.4105
  40065  H          4.5220  185.9500   24.8880 H     9022  MOL9022     0.2052
  40066  H          5.9960  185.7610   24.3010 H     9022  MOL9022     0.2052
  40067  O         81.2520  104.7560    1.1880 O.3   9023  MOL9023    -0.4105
  40068  H         80.5670  104.0580    1.2490 H     9023  MOL9023     0.2052
  40069  H         82.1430  104.3220    1.2340 H     9023  MOL9023     0.2052
  40070  O        132.0410    1.3990   87.8990 O.3   9024  MOL9024    -0.4105
  40071  H        131.4030    2.0840   87.6090 H     9024  MOL9024     0.2052
  40072  H        131.5320    0.6540   88.3110 H     9024  MOL9024     0.2052
  40073  O        162.2340   58.5340  238.9120 O.3   9025  MOL9025    -0.4105
  40074  H        161.5140   58.9100  239.4590 H     9025  MOL9025     0.2052
  40075  H        162.8840   58.0890  239.5160 H     9025  MOL9025     0.2052
  40076  O        118.4050   62.3690  225.6630 O.3   9026  MOL9026    -0.4105
  40077  H        117.9840   63.0230  226.2600 H     9026  MOL9026     0.2052
  40078  H        117.7970   62.2120  224.8950 H     9026  MOL9026     0.2052
  40079  O        128.2980   41.4010  246.5280 O.3   9027  MOL9027    -0.4105
  40080  H        127.6250   40.7600  246.8410 H     9027  MOL9027     0.2052
  40081  H        128.0940   42.2850  246.9280 H     9027  MOL9027     0.2052
  40082  O         78.7020  159.3210  128.9210 O.3   9028  MOL9028    -0.4105
  40083  H         78.5050  160.1330  128.4100 H     9028  MOL9028     0.2052
  40084  H         79.1830  159.5830  129.7490 H     9028  MOL9028     0.2052
  40085  O        196.2040  167.3150  243.5050 O.3   9029  MOL9029    -0.4105
  40086  H        196.1540  166.9150  242.6120 H     9029  MOL9029     0.2052
  40087  H        195.2800  167.5060  243.8130 H     9029  MOL9029     0.2052
  40088  O         85.2680    0.9420   72.0970 O.3   9030  MOL9030    -0.4105
  40089  H         85.2410    1.9080   71.9370 H     9030  MOL9030     0.2052
  40090  H         84.3370    0.6200   72.2130 H     9030  MOL9030     0.2052
  40091  O        102.3210   23.5020   50.5120 O.3   9031  MOL9031    -0.4105
  40092  H        102.8040   23.7300   49.6900 H     9031  MOL9031     0.2052
  40093  H        102.9770   23.1560   51.1710 H     9031  MOL9031     0.2052
  40094  O         95.9800  177.8300   13.4610 O.3   9032  MOL9032    -0.4105
  40095  H         96.5170  177.6340   14.2570 H     9032  MOL9032     0.2052
  40096  H         95.6480  178.7620   13.5320 H     9032  MOL9032     0.2052
  40097  O        114.7910   68.7360   21.2180 O.3   9033  MOL9033    -0.4105
  40098  H        114.8510   68.2520   20.3680 H     9033  MOL9033     0.2052
  40099  H        114.9450   69.7000   21.0380 H     9033  MOL9033     0.2052
  40100  O        165.7530   20.3710  224.6740 O.3   9034  MOL9034    -0.4105
  40101  H        166.1790   19.6630  225.2000 H     9034  MOL9034     0.2052
  40102  H        164.7750   20.3360  224.8400 H     9034  MOL9034     0.2052
  40103  O        133.2590  196.3940   43.1520 O.3   9035  MOL9035    -0.4105
  40104  H        133.9560  195.8730   43.6030 H     9035  MOL9035     0.2052
  40105  H        132.3770  196.0900   43.4890 H     9035  MOL9035     0.2052
  40106  O         63.1250  116.0710  176.2660 O.3   9036  MOL9036    -0.4105
  40107  H         62.8650  115.1260  176.2650 H     9036  MOL9036     0.2052
  40108  H         64.1150  116.1200  176.2820 H     9036  MOL9036     0.2052
  40109  O         45.2220  133.2650    2.3480 O.3   9037  MOL9037    -0.4105
  40110  H         44.7290  132.4920    2.0030 H     9037  MOL9037     0.2052
  40111  H         45.8560  132.9450    3.0410 H     9037  MOL9037     0.2052
  40112  O         65.2690   64.4060  168.8040 O.3   9038  MOL9038    -0.4105
  40113  H         65.7410   65.2550  168.6790 H     9038  MOL9038     0.2052
  40114  H         65.9450   63.6890  168.9210 H     9038  MOL9038     0.2052
  40115  O         35.9810   60.7300  243.1470 O.3   9039  MOL9039    -0.4105
  40116  H         36.2760   59.9590  242.6190 H     9039  MOL9039     0.2052
  40117  H         35.7140   61.4520  242.5210 H     9039  MOL9039     0.2052
  40118  O         81.6360  199.1510  299.6270 O.3   9040  MOL9040    -0.4105
  40119  H         82.1330  199.9960  299.6410 H     9040  MOL9040     0.2052
  40120  H         82.2750  198.4190  299.4290 H     9040  MOL9040     0.2052
  40121  O        193.8870    9.5370  178.4720 O.3   9041  MOL9041    -0.4105
  40122  H        194.7950    9.8770  178.6150 H     9041  MOL9041     0.2052
  40123  H        193.6300    8.9960  179.2630 H     9041  MOL9041     0.2052
  40124  O         85.2390  123.9360  169.3140 O.3   9042  MOL9042    -0.4105
  40125  H         85.3520  124.7690  168.8090 H     9042  MOL9042     0.2052
  40126  H         85.6020  123.1910  168.7700 H     9042  MOL9042     0.2052
  40127  O        134.7460   67.0910    3.8100 O.3   9043  MOL9043    -0.4105
  40128  H        133.9040   66.9540    4.2940 H     9043  MOL9043     0.2052
  40129  H        135.0720   66.2070    3.4990 H     9043  MOL9043     0.2052
  40130  O        123.6410  164.5730  189.2320 O.3   9044  MOL9044    -0.4105
  40131  H        123.6730  163.6350  189.5170 H     9044  MOL9044     0.2052
  40132  H        123.7820  165.1450  190.0310 H     9044  MOL9044     0.2052
  40133  O         90.1990  127.8520  175.1150 O.3   9045  MOL9045    -0.4105
  40134  H         89.2840  128.1180  174.8860 H     9045  MOL9045     0.2052
  40135  H         90.3050  126.8890  174.9000 H     9045  MOL9045     0.2052
  40136  O         46.4430  196.3800  109.2360 O.3   9046  MOL9046    -0.4105
  40137  H         46.7860  197.2980  109.2460 H     9046  MOL9046     0.2052
  40138  H         45.7200  196.3260  108.5580 H     9046  MOL9046     0.2052
  40139  O        170.9690   49.6430  108.0810 O.3   9047  MOL9047    -0.4105
  40140  H        170.0000   49.5140  108.0140 H     9047  MOL9047     0.2052
  40141  H        171.2430   50.3050  107.3940 H     9047  MOL9047     0.2052
  40142  O         83.1350  182.0160   60.9200 O.3   9048  MOL9048    -0.4105
  40143  H         83.3290  182.9720   61.0150 H     9048  MOL9048     0.2052
  40144  H         83.1590  181.6030   61.8220 H     9048  MOL9048     0.2052
  40145  O        140.2480  142.1330  161.0070 O.3   9049  MOL9049    -0.4105
  40146  H        140.6230  142.9920  161.2940 H     9049  MOL9049     0.2052
  40147  H        140.9390  141.4330  161.1380 H     9049  MOL9049     0.2052
  40148  O        154.9350   90.4790  294.9570 O.3   9050  MOL9050    -0.4105
  40149  H        154.5510   89.5780  294.9210 H     9050  MOL9050     0.2052
  40150  H        154.2080   91.1180  295.1760 H     9050  MOL9050     0.2052
  40151  O         94.1040   98.7920  258.8600 O.3   9051  MOL9051    -0.4105
  40152  H         94.6140   97.9550  258.8530 H     9051  MOL9051     0.2052
  40153  H         93.1450   98.5710  258.9850 H     9051  MOL9051     0.2052
  40154  O         91.7520   60.7290   12.5250 O.3   9052  MOL9052    -0.4105
  40155  H         92.3580   61.4510   12.2540 H     9052  MOL9052     0.2052
  40156  H         92.2260   59.8650   12.4080 H     9052  MOL9052     0.2052
  40157  O         40.1410  184.0040  156.7130 O.3   9053  MOL9053    -0.4105
  40158  H         40.8340  184.2050  156.0490 H     9053  MOL9053     0.2052
  40159  H         40.5680  183.5330  157.4740 H     9053  MOL9053     0.2052
  40160  O        175.6230  118.6970  127.8980 O.3   9054  MOL9054    -0.4105
  40161  H        174.7770  118.2010  127.8970 H     9054  MOL9054     0.2052
  40162  H        176.3670  118.0410  127.8960 H     9054  MOL9054     0.2052
  40163  O        178.3840   67.0100  228.1740 O.3   9055  MOL9055    -0.4105
  40164  H        177.6120   67.4690  227.7810 H     9055  MOL9055     0.2052
  40165  H        178.0890   66.1150  228.4840 H     9055  MOL9055     0.2052
  40166  O         34.7390   77.0160  115.8130 O.3   9056  MOL9056    -0.4105
  40167  H         35.3380   77.7910  115.7750 H     9056  MOL9056     0.2052
  40168  H         33.8130   77.3310  115.6460 H     9056  MOL9056     0.2052
  40169  O        192.9810    5.6970  162.5400 O.3   9057  MOL9057    -0.4105
  40170  H        192.5040    6.4000  163.0280 H     9057  MOL9057     0.2052
  40171  H        192.3080    5.0980  162.1230 H     9057  MOL9057     0.2052
  40172  O        198.4880    7.6420  123.2970 O.3   9058  MOL9058    -0.4105
  40173  H        198.5450    8.0820  124.1700 H     9058  MOL9058     0.2052
  40174  H        197.5660    7.7600  122.9490 H     9058  MOL9058     0.2052
  40175  O         41.3250  161.2590  284.3550 O.3   9059  MOL9059    -0.4105
  40176  H         42.0740  161.8670  284.1800 H     9059  MOL9059     0.2052
  40177  H         41.6530  160.3270  284.2650 H     9059  MOL9059     0.2052
  40178  O        149.6020  159.8160  124.4180 O.3   9060  MOL9060    -0.4105
  40179  H        149.4150  158.8720  124.6000 H     9060  MOL9060     0.2052
  40180  H        148.9570  160.3660  124.9330 H     9060  MOL9060     0.2052
  40181  O        112.0600   33.0770  228.0250 O.3   9061  MOL9061    -0.4105
  40182  H        112.0500   32.1010  227.9370 H     9061  MOL9061     0.2052
  40183  H        112.5110   33.4560  227.2270 H     9061  MOL9061     0.2052
  40184  O        121.5950  177.3470  291.4200 O.3   9062  MOL9062    -0.4105
  40185  H        120.7330  177.0690  291.0460 H     9062  MOL9062     0.2052
  40186  H        121.6080  178.3380  291.4650 H     9062  MOL9062     0.2052
  40187  O         52.9870  122.5430  231.4100 O.3   9063  MOL9063    -0.4105
  40188  H         52.9040  121.8590  232.1070 H     9063  MOL9063     0.2052
  40189  H         52.3410  122.3290  230.6880 H     9063  MOL9063     0.2052
  40190  O         17.3870   72.3270  167.2550 O.3   9064  MOL9064    -0.4105
  40191  H         17.3790   71.8860  166.3800 H     9064  MOL9064     0.2052
  40192  H         16.8840   71.7590  167.8940 H     9064  MOL9064     0.2052
  40193  O        181.1380   15.7220   92.5020 O.3   9065  MOL9065    -0.4105
  40194  H        181.5660   14.9740   92.0360 H     9065  MOL9065     0.2052
  40195  H        180.9550   15.4410   93.4360 H     9065  MOL9065     0.2052
  40196  O         77.3570  193.8350  164.9130 O.3   9066  MOL9066    -0.4105
  40197  H         77.1080  192.8870  164.8930 H     9066  MOL9066     0.2052
  40198  H         76.5250  194.3730  164.9660 H     9066  MOL9066     0.2052
  40199  O         75.5210   31.7450  139.0340 O.3   9067  MOL9067    -0.4105
  40200  H         74.5520   31.6140  139.0870 H     9067  MOL9067     0.2052
  40201  H         75.7110   32.7110  139.1590 H     9067  MOL9067     0.2052
  40202  O         32.5130  121.3780   66.0340 O.3   9068  MOL9068    -0.4105
  40203  H         31.7360  121.5120   65.4520 H     9068  MOL9068     0.2052
  40204  H         32.1930  121.0190   66.9020 H     9068  MOL9068     0.2052
  40205  O         31.6950  129.9230  238.7460 O.3   9069  MOL9069    -0.4105
  40206  H         30.9860  130.2430  238.1500 H     9069  MOL9069     0.2052
  40207  H         32.5180  129.7950  238.2070 H     9069  MOL9069     0.2052
  40208  O         12.4460   77.3970  109.3950 O.3   9070  MOL9070    -0.4105
  40209  H         12.5650   78.1160  110.0500 H     9070  MOL9070     0.2052
  40210  H         12.8200   77.7020  108.5280 H     9070  MOL9070     0.2052
  40211  O        105.6140   68.2120   34.2910 O.3   9071  MOL9071    -0.4105
  40212  H        105.4880   68.9900   33.7080 H     9071  MOL9071     0.2052
  40213  H        105.6060   68.5250   35.2320 H     9071  MOL9071     0.2052
  40214  O        110.0140  110.4000   44.6980 O.3   9072  MOL9072    -0.4105
  40215  H        109.5590  109.6610   44.2430 H     9072  MOL9072     0.2052
  40216  H        110.7020  110.0170   45.3020 H     9072  MOL9072     0.2052
  40217  O         22.7890  158.0230   54.7600 O.3   9073  MOL9073    -0.4105
  40218  H         22.1320  157.3150   54.5940 H     9073  MOL9073     0.2052
  40219  H         22.2990  158.8580   54.9770 H     9073  MOL9073     0.2052
  40220  O        136.5610  129.7470  222.6270 O.3   9074  MOL9074    -0.4105
  40221  H        135.6420  129.4150  222.5470 H     9074  MOL9074     0.2052
  40222  H        136.5560  130.7210  222.4390 H     9074  MOL9074     0.2052
  40223  O        158.4480  108.1340  120.9940 O.3   9075  MOL9075    -0.4105
  40224  H        159.1200  108.8460  121.0010 H     9075  MOL9075     0.2052
  40225  H        157.6110  108.5000  120.6060 H     9075  MOL9075     0.2052
  40226  O         30.6160  163.3030   21.9190 O.3   9076  MOL9076    -0.4105
  40227  H         31.0310  163.1880   21.0390 H     9076  MOL9076     0.2052
  40228  H         29.9110  162.6120   22.0230 H     9076  MOL9076     0.2052
  40229  O        153.8830   76.9340  279.2720 O.3   9077  MOL9077    -0.4105
  40230  H        154.0760   77.8920  279.2060 H     9077  MOL9077     0.2052
  40231  H        154.5170   76.5340  279.9220 H     9077  MOL9077     0.2052
  40232  O        113.6450   42.2620   62.1080 O.3   9078  MOL9078    -0.4105
  40233  H        113.6060   42.6450   61.2070 H     9078  MOL9078     0.2052
  40234  H        113.5670   41.2760   62.0310 H     9078  MOL9078     0.2052
  40235  O        156.5480  104.5330  253.2190 O.3   9079  MOL9079    -0.4105
  40236  H        157.3570  103.9810  253.1900 H     9079  MOL9079     0.2052
  40237  H        155.8370  104.0200  253.6830 H     9079  MOL9079     0.2052
  40238  O        115.4540  190.4670  266.4250 O.3   9080  MOL9080    -0.4105
  40239  H        116.1130  190.1600  265.7670 H     9080  MOL9080     0.2052
  40240  H        114.6090  189.9680  266.2740 H     9080  MOL9080     0.2052
  40241  O        184.4210   17.0040  176.3440 O.3   9081  MOL9081    -0.4105
  40242  H        183.5440   17.2840  176.6810 H     9081  MOL9081     0.2052
  40243  H        184.3910   17.0190  175.3520 H     9081  MOL9081     0.2052
  40244  O          8.9460   32.6680  108.7680 O.3   9082  MOL9082    -0.4105
  40245  H          8.8010   32.1560  107.9450 H     9082  MOL9082     0.2052
  40246  H          9.0810   32.0270  109.5130 H     9082  MOL9082     0.2052
  40247  O        192.8280   73.3360  293.5310 O.3   9083  MOL9083    -0.4105
  40248  H        192.5130   74.1640  293.1130 H     9083  MOL9083     0.2052
  40249  H        193.6750   73.5330  294.0090 H     9083  MOL9083     0.2052
  40250  O         94.2080  135.5800  211.2980 O.3   9084  MOL9084    -0.4105
  40251  H         95.1580  135.5360  211.5370 H     9084  MOL9084     0.2052
  40252  H         94.0900  136.2980  210.6240 H     9084  MOL9084     0.2052
  40253  O         60.1530   60.1300  251.3290 O.3   9085  MOL9085    -0.4105
  40254  H         61.0220   59.8310  250.9890 H     9085  MOL9085     0.2052
  40255  H         60.0690   59.8320  252.2720 H     9085  MOL9085     0.2052
  40256  O        164.7510   15.8620  200.2890 O.3   9086  MOL9086    -0.4105
  40257  H        164.7440   16.8380  200.2000 H     9086  MOL9086     0.2052
  40258  H        163.8990   15.5100  199.9210 H     9086  MOL9086     0.2052
  40259  O         70.9860   42.9450    1.1840 O.3   9087  MOL9087    -0.4105
  40260  H         70.8860   43.9100    1.3230 H     9087  MOL9087     0.2052
  40261  H         70.3390   42.6640    0.4860 H     9087  MOL9087     0.2052
  40262  O        166.3390   98.7160  252.4850 O.3   9088  MOL9088    -0.4105
  40263  H        165.5910   98.0850  252.5510 H     9088  MOL9088     0.2052
  40264  H        167.1820   98.1940  252.4420 H     9088  MOL9088     0.2052
  40265  O         79.4850   28.3220  243.3060 O.3   9089  MOL9089    -0.4105
  40266  H         79.1780   28.3580  242.3760 H     9089  MOL9089     0.2052
  40267  H         80.4540   28.1080  243.3050 H     9089  MOL9089     0.2052
  40268  O         98.4880   66.8130  195.4760 O.3   9090  MOL9090    -0.4105
  40269  H         98.2700   67.7380  195.7160 H     9090  MOL9090     0.2052
  40270  H         98.7210   66.7890  194.5120 H     9090  MOL9090     0.2052
  40271  O        129.8390   38.7380   68.4580 O.3   9091  MOL9091    -0.4105
  40272  H        129.8780   37.7630   68.3720 H     9091  MOL9091     0.2052
  40273  H        128.8860   39.0080   68.5040 H     9091  MOL9091     0.2052
  40274  O        126.2700   30.6860  189.9390 O.3   9092  MOL9092    -0.4105
  40275  H        127.0150   30.4190  189.3610 H     9092  MOL9092     0.2052
  40276  H        126.2700   31.6760  190.0080 H     9092  MOL9092     0.2052
  40277  O        180.6650  121.7080   26.0780 O.3   9093  MOL9093    -0.4105
  40278  H        179.7930  121.4020   26.4030 H     9093  MOL9093     0.2052
  40279  H        181.0990  122.2320   26.8000 H     9093  MOL9093     0.2052
  40280  O         70.6920  191.9250   23.8820 O.3   9094  MOL9094    -0.4105
  40281  H         70.5100  192.8860   23.9430 H     9094  MOL9094     0.2052
  40282  H         69.9860  191.4430   24.3860 H     9094  MOL9094     0.2052
  40283  O        168.1260   97.8930  242.7660 O.3   9095  MOL9095    -0.4105
  40284  H        169.0790   97.9670  242.9830 H     9095  MOL9095     0.2052
  40285  H        168.0440   97.5710  241.8310 H     9095  MOL9095     0.2052
  40286  O        159.7780  189.9050  292.2690 O.3   9096  MOL9096    -0.4105
  40287  H        158.9320  190.1760  291.8560 H     9096  MOL9096     0.2052
  40288  H        160.2450  190.7210  292.5850 H     9096  MOL9096     0.2052
  40289  O         85.6940   78.0990  242.8520 O.3   9097  MOL9097    -0.4105
  40290  H         85.2420   77.2300  242.8140 H     9097  MOL9097     0.2052
  40291  H         85.0190   78.7900  243.0770 H     9097  MOL9097     0.2052
  40292  O        167.4240   37.7400   52.0410 O.3   9098  MOL9098    -0.4105
  40293  H        167.3880   36.8790   51.5760 H     9098  MOL9098     0.2052
  40294  H        167.8770   38.3950   51.4490 H     9098  MOL9098     0.2052
  40295  O        151.1600   39.9940   70.0070 O.3   9099  MOL9099    -0.4105
  40296  H        151.5470   40.8320   69.6780 H     9099  MOL9099     0.2052
  40297  H        151.2990   39.9520   70.9880 H     9099  MOL9099     0.2052
  40298  O        187.2300    0.7560  158.3490 O.3   9100  MOL9100    -0.4105
  40299  H        187.0100    0.8240  159.3020 H     9100  MOL9100     0.2052
  40300  H        187.0270    1.6280  157.9200 H     9100  MOL9100     0.2052
  40301  O         31.9270  168.1530  118.6680 O.3   9101  MOL9101    -0.4105
  40302  H         32.6060  167.9070  119.3300 H     9101  MOL9101     0.2052
  40303  H         32.3750  168.6490  117.9340 H     9101  MOL9101     0.2052
  40304  O        168.1630   34.0820  154.1480 O.3   9102  MOL9102    -0.4105
  40305  H        167.4530   34.5820  154.6000 H     9102  MOL9102     0.2052
  40306  H        168.9680   34.6610  154.0980 H     9102  MOL9102     0.2052
  40307  O         47.2530   41.8650   43.2670 O.3   9103  MOL9103    -0.4105
  40308  H         48.2180   41.8890   43.4380 H     9103  MOL9103     0.2052
  40309  H         47.0080   40.9410   43.0030 H     9103  MOL9103     0.2052
  40310  O        156.8190  173.8620  180.9520 O.3   9104  MOL9104    -0.4105
  40311  H        157.4450  173.1080  180.9700 H     9104  MOL9104     0.2052
  40312  H        155.9080  173.5140  181.1380 H     9104  MOL9104     0.2052
  40313  O         56.0130  137.9860   39.1640 O.3   9105  MOL9105    -0.4105
  40314  H         55.3370  137.4720   38.6760 H     9105  MOL9105     0.2052
  40315  H         55.6810  138.9150   39.2690 H     9105  MOL9105     0.2052
  40316  O        181.7720   35.0450  175.0050 O.3   9106  MOL9106    -0.4105
  40317  H        182.5880   35.0350  174.4620 H     9106  MOL9106     0.2052
  40318  H        181.2500   34.2270  174.7960 H     9106  MOL9106     0.2052
  40319  O        145.0410  199.6380  166.6320 O.3   9107  MOL9107    -0.4105
  40320  H        144.3690  199.2550  167.2350 H     9107  MOL9107     0.2052
  40321  H        144.5760  199.9800  165.8250 H     9107  MOL9107     0.2052
  40322  O        126.4610  173.0440  102.4380 O.3   9108  MOL9108    -0.4105
  40323  H        126.0370  173.7860  101.9580 H     9108  MOL9108     0.2052
  40324  H        127.0060  173.4220  103.1750 H     9108  MOL9108     0.2052
  40325  O         18.6280   93.7180  147.4130 O.3   9109  MOL9109    -0.4105
  40326  H         18.5070   94.2470  148.2290 H     9109  MOL9109     0.2052
  40327  H         17.8370   93.1300  147.3030 H     9109  MOL9109     0.2052
  40328  O        162.3710  180.4400  202.5250 O.3   9110  MOL9110    -0.4105
  40329  H        161.7580  181.1280  202.1910 H     9110  MOL9110     0.2052
  40330  H        162.1100  179.5700  202.1250 H     9110  MOL9110     0.2052
  40331  O        197.4930   99.5470   55.2800 O.3   9111  MOL9111    -0.4105
  40332  H        196.9790   98.7480   55.5230 H     9111  MOL9111     0.2052
  40333  H        198.4570   99.3130   55.2990 H     9111  MOL9111     0.2052
  40334  O         18.6260   74.3130  139.3310 O.3   9112  MOL9112    -0.4105
  40335  H         18.7340   75.2860  139.2760 H     9112  MOL9112     0.2052
  40336  H         17.6560   74.1100  139.3670 H     9112  MOL9112     0.2052
  40337  O         14.7900  180.6560  133.1410 O.3   9113  MOL9113    -0.4105
  40338  H         14.6590  179.7900  132.7030 H     9113  MOL9113     0.2052
  40339  H         13.8990  181.0170  133.3870 H     9113  MOL9113     0.2052
  40340  O         66.1200   85.1660  271.4790 O.3   9114  MOL9114    -0.4105
  40341  H         66.9370   85.1330  270.9390 H     9114  MOL9114     0.2052
  40342  H         65.6840   84.2760  271.4380 H     9114  MOL9114     0.2052
  40343  O         50.8520   32.5050   51.9820 O.3   9115  MOL9115    -0.4105
  40344  H         50.3540   33.0900   51.3740 H     9115  MOL9115     0.2052
  40345  H         50.5210   32.6620   52.9040 H     9115  MOL9115     0.2052
  40346  O        199.0110  188.1380   68.2580 O.3   9116  MOL9116    -0.4105
  40347  H        199.6750  188.7410   68.6530 H     9116  MOL9116     0.2052
  40348  H        198.1090  188.5120   68.4320 H     9116  MOL9116     0.2052
  40349  O         22.1620   69.5300   28.7100 O.3   9117  MOL9117    -0.4105
  40350  H         22.8340   68.9470   29.1210 H     9117  MOL9117     0.2052
  40351  H         22.2270   70.4250   29.1350 H     9117  MOL9117     0.2052
  40352  O         55.1870  193.5610  160.7590 O.3   9118  MOL9118    -0.4105
  40353  H         54.8960  194.2220  161.4220 H     9118  MOL9118     0.2052
  40354  H         54.7060  192.7110  160.9360 H     9118  MOL9118     0.2052
  40355  O          2.5060  176.0600  161.9530 O.3   9119  MOL9119    -0.4105
  40356  H          2.3640  176.9190  162.4040 H     9119  MOL9119     0.2052
  40357  H          3.1750  175.5440  162.4720 H     9119  MOL9119     0.2052
  40358  O        190.6360  113.9720  109.4780 O.3   9120  MOL9120    -0.4105
  40359  H        189.7900  114.3190  109.8320 H     9120  MOL9120     0.2052
  40360  H        190.4640  113.0770  109.0850 H     9120  MOL9120     0.2052
  40361  O        161.1440  186.1020   73.9690 O.3   9121  MOL9121    -0.4105
  40362  H        160.9160  187.0530   74.0240 H     9121  MOL9121     0.2052
  40363  H        160.3000  185.5790   73.9820 H     9121  MOL9121     0.2052
  40364  O        130.6690  170.8190   73.6310 O.3   9122  MOL9122    -0.4105
  40365  H        131.5550  171.2380   73.6020 H     9122  MOL9122     0.2052
  40366  H        129.9910  171.5110   73.4190 H     9122  MOL9122     0.2052
  40367  O         43.0620  147.6810   42.5190 O.3   9123  MOL9123    -0.4105
  40368  H         43.9660  147.5030   42.1840 H     9123  MOL9123     0.2052
  40369  H         43.1380  148.2490   43.3290 H     9123  MOL9123     0.2052
  40370  O         88.5660  181.6860  112.1020 O.3   9124  MOL9124    -0.4105
  40371  H         88.7010  180.7390  111.8900 H     9124  MOL9124     0.2052
  40372  H         89.2770  181.9670  112.7350 H     9124  MOL9124     0.2052
  40373  O        154.3350   16.4040   48.6970 O.3   9125  MOL9125    -0.4105
  40374  H        153.6070   16.9850   48.3930 H     9125  MOL9125     0.2052
  40375  H        153.9420   15.5410   48.9910 H     9125  MOL9125     0.2052
  40376  O        131.4820   24.2690   20.5930 O.3   9126  MOL9126    -0.4105
  40377  H        132.3720   23.8590   20.5690 H     9126  MOL9126     0.2052
  40378  H        130.8080   23.5440   20.6550 H     9126  MOL9126     0.2052
  40379  O        196.7790  178.8000   58.2180 O.3   9127  MOL9127    -0.4105
  40380  H        196.0110  179.2400   57.7970 H     9127  MOL9127     0.2052
  40381  H        197.5990  179.3010   57.9690 H     9127  MOL9127     0.2052
  40382  O         47.6080   34.1540   96.3930 O.3   9128  MOL9128    -0.4105
  40383  H         47.3700   35.0620   96.6750 H     9128  MOL9128     0.2052
  40384  H         46.8780   33.5410   96.6680 H     9128  MOL9128     0.2052
  40385  O         30.4970  192.7830  288.9470 O.3   9129  MOL9129    -0.4105
  40386  H         30.3690  192.5220  289.8830 H     9129  MOL9129     0.2052
  40387  H         30.3580  193.7620  288.8760 H     9129  MOL9129     0.2052
  40388  O          4.5930  169.6060  204.1240 O.3   9130  MOL9130    -0.4105
  40389  H          4.4850  168.6540  204.3320 H     9130  MOL9130     0.2052
  40390  H          4.6360  169.7050  203.1380 H     9130  MOL9130     0.2052
  40391  O         42.0570  172.0080  230.2960 O.3   9131  MOL9131    -0.4105
  40392  H         41.3480  171.4960  230.7380 H     9131  MOL9131     0.2052
  40393  H         42.5550  172.5120  230.9900 H     9131  MOL9131     0.2052
  40394  O         72.2410  135.8080   19.4480 O.3   9132  MOL9132    -0.4105
  40395  H         71.3620  135.7630   19.8790 H     9132  MOL9132     0.2052
  40396  H         72.1250  135.6050   18.4840 H     9132  MOL9132     0.2052
  40397  O         79.6560   83.2000  275.8400 O.3   9133  MOL9133    -0.4105
  40398  H         80.5380   82.9860  275.4680 H     9133  MOL9133     0.2052
  40399  H         79.7700   83.9180  276.5160 H     9133  MOL9133     0.2052
  40400  O        113.0890  178.4000  163.0310 O.3   9134  MOL9134    -0.4105
  40401  H        113.4620  178.4480  163.9360 H     9134  MOL9134     0.2052
  40402  H        113.6360  177.7620  162.5030 H     9134  MOL9134     0.2052
  40403  O         23.0600   96.9960   21.7480 O.3   9135  MOL9135    -0.4105
  40404  H         22.1990   97.0720   22.2110 H     9135  MOL9135     0.2052
  40405  H         23.6770   97.6740   22.1270 H     9135  MOL9135     0.2052
  40406  O         60.3090   40.0630  209.8930 O.3   9136  MOL9136    -0.4105
  40407  H         61.1800   40.4840  209.7330 H     9136  MOL9136     0.2052
  40408  H         59.6110   40.7680  209.8520 H     9136  MOL9136     0.2052
  40409  O         17.2190  130.9710  120.9190 O.3   9137  MOL9137    -0.4105
  40410  H         17.9430  131.5980  121.1270 H     9137  MOL9137     0.2052
  40411  H         17.1550  130.3130  121.6600 H     9137  MOL9137     0.2052
  40412  O          1.1410  146.1380  186.9050 O.3   9138  MOL9138    -0.4105
  40413  H          1.1580  145.1580  186.8900 H     9138  MOL9138     0.2052
  40414  H          2.0760  146.4660  186.8470 H     9138  MOL9138     0.2052
  40415  O         19.8730  110.3800   64.9290 O.3   9139  MOL9139    -0.4105
  40416  H         20.6590  110.4720   65.5060 H     9139  MOL9139     0.2052
  40417  H         19.4670  111.2780   64.8120 H     9139  MOL9139     0.2052
  40418  O        140.2890  182.4190   27.8400 O.3   9140  MOL9140    -0.4105
  40419  H        140.6790  182.5830   28.7240 H     9140  MOL9140     0.2052
  40420  H        141.0230  182.4160   27.1720 H     9140  MOL9140     0.2052
  40421  O        196.8180    4.5320  271.4520 O.3   9141  MOL9141    -0.4105
  40422  H        196.5460    5.4490  271.2410 H     9141  MOL9141     0.2052
  40423  H        197.4870    4.2430  270.7780 H     9141  MOL9141     0.2052
  40424  O        120.8320   28.5980  289.8110 O.3   9142  MOL9142    -0.4105
  40425  H        121.3220   29.2530  290.3500 H     9142  MOL9142     0.2052
  40426  H        119.9110   28.5250  290.1710 H     9142  MOL9142     0.2052
  40427  O         37.5890    0.7860  197.1610 O.3   9143  MOL9143    -0.4105
  40428  H         37.6890    0.0460  196.5270 H     9143  MOL9143     0.2052
  40429  H         36.8650    0.5530  197.7980 H     9143  MOL9143     0.2052
  40430  O         39.8390  107.8170  294.4260 O.3   9144  MOL9144    -0.4105
  40431  H         39.6430  108.5480  293.8030 H     9144  MOL9144     0.2052
  40432  H         40.0170  108.2100  295.3200 H     9144  MOL9144     0.2052
  40433  O         27.8220    6.1990  146.2090 O.3   9145  MOL9145    -0.4105
  40434  H         27.7740    5.2200  146.2130 H     9145  MOL9145     0.2052
  40435  H         28.7620    6.4640  146.3870 H     9145  MOL9145     0.2052
  40436  O         83.2510  198.0710  170.3320 O.3   9146  MOL9146    -0.4105
  40437  H         82.5790  197.3650  170.4240 H     9146  MOL9146     0.2052
  40438  H         83.7100  197.9520  169.4600 H     9146  MOL9146     0.2052
  40439  O         54.9780   12.1140   54.8230 O.3   9147  MOL9147    -0.4105
  40440  H         55.0340   13.0920   54.8670 H     9147  MOL9147     0.2052
  40441  H         54.3990   11.8710   54.0540 H     9147  MOL9147     0.2052
  40442  O        151.3180  198.3850  234.9160 O.3   9148  MOL9148    -0.4105
  40443  H        151.7300  197.4950  234.9210 H     9148  MOL9148     0.2052
  40444  H        150.3330  198.2710  234.9150 H     9148  MOL9148     0.2052
  40445  O         77.2250   24.3500  201.0750 O.3   9149  MOL9149    -0.4105
  40446  H         77.4440   23.5220  201.5520 H     9149  MOL9149     0.2052
  40447  H         77.4980   25.1160  201.6420 H     9149  MOL9149     0.2052
  40448  O         48.8810   76.7440   47.7980 O.3   9150  MOL9150    -0.4105
  40449  H         49.0300   77.5040   48.3980 H     9150  MOL9150     0.2052
  40450  H         47.9730   76.3840   47.9740 H     9150  MOL9150     0.2052
  40451  O          7.7990   35.4710   12.1930 O.3   9151  MOL9151    -0.4105
  40452  H          6.9770   35.3960   11.6640 H     9151  MOL9151     0.2052
  40453  H          7.5760   35.9180   13.0510 H     9151  MOL9151     0.2052
  40454  O        116.5990  124.9100  281.7300 O.3   9152  MOL9152    -0.4105
  40455  H        116.3280  125.5970  281.0850 H     9152  MOL9152     0.2052
  40456  H        115.8630  124.2480  281.8060 H     9152  MOL9152     0.2052
  40457  O        171.6110   90.3820  213.6200 O.3   9153  MOL9153    -0.4105
  40458  H        171.2140   89.5400  213.9260 H     9153  MOL9153     0.2052
  40459  H        170.9090   90.9040  213.1510 H     9153  MOL9153     0.2052
  40460  O        166.5480   18.4490  159.5370 O.3   9154  MOL9154    -0.4105
  40461  H        166.1410   17.5580  159.5260 H     9154  MOL9154     0.2052
  40462  H        165.9030   19.0900  159.1400 H     9154  MOL9154     0.2052
  40463  O         15.0210   30.9300  294.4200 O.3   9155  MOL9155    -0.4105
  40464  H         15.9920   30.8030  294.4550 H     9155  MOL9155     0.2052
  40465  H         14.7080   30.6780  293.5120 H     9155  MOL9155     0.2052
  40466  O        129.2030   60.8070   33.8650 O.3   9156  MOL9156    -0.4105
  40467  H        129.9020   60.1200   33.8650 H     9156  MOL9156     0.2052
  40468  H        129.4990   61.5520   34.4510 H     9156  MOL9156     0.2052
  40469  O        109.5410   75.6290  240.9090 O.3   9157  MOL9157    -0.4105
  40470  H        108.7310   76.0480  240.5510 H     9157  MOL9157     0.2052
  40471  H        110.3050   75.8880  240.3310 H     9157  MOL9157     0.2052
  40472  O        126.2920   31.0930   98.8370 O.3   9158  MOL9158    -0.4105
  40473  H        125.8260   30.2310   98.8180 H     9158  MOL9158     0.2052
  40474  H        125.6120   31.8140   98.7860 H     9158  MOL9158     0.2052
  40475  O         63.8610   32.9600  172.1800 O.3   9159  MOL9159    -0.4105
  40476  H         64.8170   32.7450  172.1470 H     9159  MOL9159     0.2052
  40477  H         63.3630   32.2320  171.7250 H     9159  MOL9159     0.2052
  40478  O        152.9600   76.3610  262.1300 O.3   9160  MOL9160    -0.4105
  40479  H        153.8840   76.0670  261.9860 H     9160  MOL9160     0.2052
  40480  H        152.6830   76.9060  261.3480 H     9160  MOL9160     0.2052
  40481  O         67.4940  193.3790    8.4550 O.3   9161  MOL9161    -0.4105
  40482  H         66.6910  192.8810    8.1950 H     9161  MOL9161     0.2052
  40483  H         67.7790  193.9340    7.6840 H     9161  MOL9161     0.2052
  40484  O        140.3880  169.1130  187.0740 O.3   9162  MOL9162    -0.4105
  40485  H        139.4260  169.0370  186.9010 H     9162  MOL9162     0.2052
  40486  H        140.8420  169.3150  186.2150 H     9162  MOL9162     0.2052
  40487  O        158.3390   71.3780  206.3300 O.3   9163  MOL9163    -0.4105
  40488  H        157.9180   70.5660  205.9790 H     9163  MOL9163     0.2052
  40489  H        158.7630   71.1570  207.1990 H     9163  MOL9163     0.2052
  40490  O         90.8140   77.1310  289.5490 O.3   9164  MOL9164    -0.4105
  40491  H         91.5330   77.0450  290.2100 H     9164  MOL9164     0.2052
  40492  H         91.2080   77.4740  288.7050 H     9164  MOL9164     0.2052
  40493  O        182.7980   15.5390  171.5350 O.3   9165  MOL9165    -0.4105
  40494  H        181.8810   15.6450  171.8630 H     9165  MOL9165     0.2052
  40495  H        182.8650   15.9830  170.6500 H     9165  MOL9165     0.2052
  40496  O         23.9440   89.3440   19.9470 O.3   9166  MOL9166    -0.4105
  40497  H         24.4530   88.6550   19.4710 H     9166  MOL9166     0.2052
  40498  H         23.2010   88.9020   20.4330 H     9166  MOL9166     0.2052
  40499  O        154.4530   35.6060  236.6780 O.3   9167  MOL9167    -0.4105
  40500  H        153.9570   34.7860  236.8820 H     9167  MOL9167     0.2052
  40501  H        155.2750   35.3550  236.1810 H     9167  MOL9167     0.2052
  40502  O        159.4350   90.7410  104.6300 O.3   9168  MOL9168    -0.4105
  40503  H        160.2020   91.3150  104.8380 H     9168  MOL9168     0.2052
  40504  H        158.6050   91.2610  104.7870 H     9168  MOL9168     0.2052
  40505  O         49.0920  131.9380  219.2450 O.3   9169  MOL9169    -0.4105
  40506  H         49.4490  131.1060  218.8680 H     9169  MOL9169     0.2052
  40507  H         49.4240  132.6950  218.6970 H     9169  MOL9169     0.2052
  40508  O         38.4930   74.3080  142.6570 O.3   9170  MOL9170    -0.4105
  40509  H         38.8010   73.4510  143.0180 H     9170  MOL9170     0.2052
  40510  H         39.2800   74.9050  142.5600 H     9170  MOL9170     0.2052
  40511  O         92.9510  131.4980  211.5630 O.3   9171  MOL9171    -0.4105
  40512  H         93.5470  131.6450  210.7990 H     9171  MOL9171     0.2052
  40513  H         92.9650  130.5310  211.7870 H     9171  MOL9171     0.2052
  40514  O         35.6620   14.2700   36.8160 O.3   9172  MOL9172    -0.4105
  40515  H         35.9690   13.7950   36.0150 H     9172  MOL9172     0.2052
  40516  H         34.6800   14.3890   36.7490 H     9172  MOL9172     0.2052
  40517  O        126.9990    3.9000   63.9600 O.3   9173  MOL9173    -0.4105
  40518  H        127.4090    4.7480   64.2310 H     9173  MOL9173     0.2052
  40519  H        127.7040    3.2010   63.9540 H     9173  MOL9173     0.2052
  40520  O        164.6420  143.7350   86.1350 O.3   9174  MOL9174    -0.4105
  40521  H        164.6910  144.7000   85.9730 H     9174  MOL9174     0.2052
  40522  H        165.2380  143.5180   86.8980 H     9174  MOL9174     0.2052
  40523  O        143.1690  178.4680  131.8500 O.3   9175  MOL9175    -0.4105
  40524  H        143.7300  177.6710  131.7540 H     9175  MOL9175     0.2052
  40525  H        143.2890  179.0320  131.0430 H     9175  MOL9175     0.2052
  40526  O        100.0700  124.0900  258.0620 O.3   9176  MOL9176    -0.4105
  40527  H         99.5620  123.4570  258.6100 H     9176  MOL9176     0.2052
  40528  H        100.9960  124.1360  258.4170 H     9176  MOL9176     0.2052
  40529  O         21.6060  121.3770  211.3080 O.3   9177  MOL9177    -0.4105
  40530  H         22.0270  122.2480  211.4660 H     9177  MOL9177     0.2052
  40531  H         20.7140  121.3790  211.7430 H     9177  MOL9177     0.2052
  40532  O         19.6110   30.4480  214.1030 O.3   9178  MOL9178    -0.4105
  40533  H         20.4490   30.8670  214.3900 H     9178  MOL9178     0.2052
  40534  H         19.8180   29.5370  213.7680 H     9178  MOL9178     0.2052
  40535  O         11.9480  176.5440  270.9110 O.3   9179  MOL9179    -0.4105
  40536  H         11.4380  175.7400  270.6780 H     9179  MOL9179     0.2052
  40537  H         12.6310  176.2940  271.5860 H     9179  MOL9179     0.2052
  40538  O         51.0290   39.3920  144.3600 O.3   9180  MOL9180    -0.4105
  40539  H         51.1330   40.3650  144.3030 H     9180  MOL9180     0.2052
  40540  H         51.9180   38.9750  144.2180 H     9180  MOL9180     0.2052
  40541  O        164.0250   78.0800  156.2580 O.3   9181  MOL9181    -0.4105
  40542  H        164.1440   78.4450  157.1600 H     9181  MOL9181     0.2052
  40543  H        163.5400   78.7530  155.7130 H     9181  MOL9181     0.2052
  40544  O         18.4690  100.4330  185.0760 O.3   9182  MOL9182    -0.4105
  40545  H         17.7220   99.8220  184.9020 H     9182  MOL9182     0.2052
  40546  H         18.3790  100.7790  186.0010 H     9182  MOL9182     0.2052
  40547  O         67.0840   72.8620  185.5520 O.3   9183  MOL9183    -0.4105
  40548  H         66.9680   72.5830  186.4840 H     9183  MOL9183     0.2052
  40549  H         66.7590   72.1290  184.9660 H     9183  MOL9183     0.2052
  40550  O        183.8540  100.9820  256.1770 O.3   9184  MOL9184    -0.4105
  40551  H        184.0610  101.3010  257.0810 H     9184  MOL9184     0.2052
  40552  H        184.6910  100.9990  255.6440 H     9184  MOL9184     0.2052
  40553  O         75.0470  131.4080  299.0030 O.3   9185  MOL9185    -0.4105
  40554  H         75.5230  132.2420  299.1970 H     9185  MOL9185     0.2052
  40555  H         74.0770  131.5660  299.1380 H     9185  MOL9185     0.2052
  40556  O        121.7930   26.3870   91.6220 O.3   9186  MOL9186    -0.4105
  40557  H        121.3520   25.5560   91.3470 H     9186  MOL9186     0.2052
  40558  H        122.7680   26.2140   91.6870 H     9186  MOL9186     0.2052
  40559  O         19.2760  199.6480  289.1010 O.3   9187  MOL9187    -0.4105
  40560  H         19.5510  198.7750  289.4490 H     9187  MOL9187     0.2052
  40561  H         19.5040  199.6840  288.1360 H     9187  MOL9187     0.2052
  40562  O        103.1370    9.1880  215.1150 O.3   9188  MOL9188    -0.4105
  40563  H        102.9760    8.4010  214.5540 H     9188  MOL9188     0.2052
  40564  H        102.6380    9.0720  215.9640 H     9188  MOL9188     0.2052
  40565  O        197.4470  195.2540  292.5060 O.3   9189  MOL9189    -0.4105
  40566  H        197.0740  195.5420  293.3650 H     9189  MOL9189     0.2052
  40567  H        197.7230  194.3040  292.5910 H     9189  MOL9189     0.2052
  40568  O         78.7910  121.8010  278.8430 O.3   9190  MOL9190    -0.4105
  40569  H         79.4590  121.6830  279.5510 H     9190  MOL9190     0.2052
  40570  H         77.8970  121.8640  279.2680 H     9190  MOL9190     0.2052
  40571  O         18.6800   30.8170  231.1900 O.3   9191  MOL9191    -0.4105
  40572  H         19.6230   31.0710  231.1110 H     9191  MOL9191     0.2052
  40573  H         18.6280   29.8280  231.2490 H     9191  MOL9191     0.2052
  40574  O        155.7800  187.8360   54.4520 O.3   9192  MOL9192    -0.4105
  40575  H        156.3320  187.0500   54.2570 H     9192  MOL9192     0.2052
  40576  H        156.3390  188.6460   54.3320 H     9192  MOL9192     0.2052
  40577  O         38.0400  196.2150  125.1090 O.3   9193  MOL9193    -0.4105
  40578  H         37.9970  196.8730  124.3840 H     9193  MOL9193     0.2052
  40579  H         37.8920  195.3140  124.7200 H     9193  MOL9193     0.2052
  40580  O        176.5600  152.2170  167.8610 O.3   9194  MOL9194    -0.4105
  40581  H        175.8230  152.8580  167.7830 H     9194  MOL9194     0.2052
  40582  H        177.3870  152.7200  168.0790 H     9194  MOL9194     0.2052
  40583  O        145.9290  188.5850   71.4540 O.3   9195  MOL9195    -0.4105
  40584  H        146.9070  188.5280   71.4240 H     9195  MOL9195     0.2052
  40585  H        145.6570  188.7570   72.3920 H     9195  MOL9195     0.2052
  40586  O          7.0130  176.1240  185.3950 O.3   9196  MOL9196    -0.4105
  40587  H          7.9390  175.8230  185.5050 H     9196  MOL9196     0.2052
  40588  H          7.0110  177.1160  185.3590 H     9196  MOL9196     0.2052
  40589  O         98.1650    3.9480   57.0480 O.3   9197  MOL9197    -0.4105
  40590  H         98.5730    3.2100   56.5480 H     9197  MOL9197     0.2052
  40591  H         98.3810    3.8290   58.0090 H     9197  MOL9197     0.2052
  40592  O        176.9580  167.4800   42.6370 O.3   9198  MOL9198    -0.4105
  40593  H        176.8490  166.5410   42.8930 H     9198  MOL9198     0.2052
  40594  H        177.8470  167.5840   42.2100 H     9198  MOL9198     0.2052
  40595  O        143.8350   71.4220  276.0560 O.3   9199  MOL9199    -0.4105
  40596  H        144.5960   71.9380  275.7180 H     9199  MOL9199     0.2052
  40597  H        144.1870   70.6430  276.5580 H     9199  MOL9199     0.2052
  40598  O         75.7630   69.6330  178.7820 O.3   9200  MOL9200    -0.4105
  40599  H         74.9010   70.0980  178.8140 H     9200  MOL9200     0.2052
  40600  H         75.5880   68.6570  178.7360 H     9200  MOL9200     0.2052
  40601  O         30.0600    2.2090  299.1780 O.3   9201  MOL9201    -0.4105
  40602  H         30.2660    1.3040  298.8610 H     9201  MOL9201     0.2052
  40603  H         30.9130    2.6550  299.4190 H     9201  MOL9201     0.2052
  40604  O         28.5340   92.2450  219.5500 O.3   9202  MOL9202    -0.4105
  40605  H         27.9890   92.4260  218.7560 H     9202  MOL9202     0.2052
  40606  H         28.7130   91.2700  219.5880 H     9202  MOL9202     0.2052
  40607  O         43.3500   50.3960  226.7950 O.3   9203  MOL9203    -0.4105
  40608  H         43.0170   49.5500  226.4290 H     9203  MOL9203     0.2052
  40609  H         42.5730   50.9880  226.9660 H     9203  MOL9203     0.2052
  40610  O        154.3700   19.0720  252.4490 O.3   9204  MOL9204    -0.4105
  40611  H        154.5600   20.0150  252.2590 H     9204  MOL9204     0.2052
  40612  H        154.1500   18.6210  251.5930 H     9204  MOL9204     0.2052
  40613  O        186.5960   78.1020  184.9660 O.3   9205  MOL9205    -0.4105
  40614  H        186.2640   77.8040  184.0930 H     9205  MOL9205     0.2052
  40615  H        187.4640   77.6530  185.1380 H     9205  MOL9205     0.2052
  40616  O        193.5930    5.8040  214.7500 O.3   9206  MOL9206    -0.4105
  40617  H        193.4230    5.0740  215.3820 H     9206  MOL9206     0.2052
  40618  H        192.7320    6.2610  214.5650 H     9206  MOL9206     0.2052
  40619  O        153.1330   43.7310  271.6550 O.3   9207  MOL9207    -0.4105
  40620  H        152.5240   44.3340  271.1800 H     9207  MOL9207     0.2052
  40621  H        152.7440   42.8180  271.6340 H     9207  MOL9207     0.2052
  40622  O          4.4460    4.5110    9.5830 O.3   9208  MOL9208    -0.4105
  40623  H          4.8450    3.6190    9.6560 H     9208  MOL9208     0.2052
  40624  H          4.2590    4.6900    8.6250 H     9208  MOL9208     0.2052
  40625  O         22.0670   45.5490  162.8060 O.3   9209  MOL9209    -0.4105
  40626  H         21.8480   46.5040  162.7960 H     9209  MOL9209     0.2052
  40627  H         21.2190   45.0360  162.8390 H     9209  MOL9209     0.2052
  40628  O        147.0560   70.3920  279.1530 O.3   9210  MOL9210    -0.4105
  40629  H        146.7480   69.7790  278.4530 H     9210  MOL9210     0.2052
  40630  H        147.3830   69.8510  279.9180 H     9210  MOL9210     0.2052
  40631  O        110.6670   76.8080   51.7820 O.3   9211  MOL9211    -0.4105
  40632  H        111.6030   77.0510   51.9390 H     9211  MOL9211     0.2052
  40633  H        110.1350   77.6430   51.7200 H     9211  MOL9211     0.2052
  40634  O        173.1310  197.7180  166.6890 O.3   9212  MOL9212    -0.4105
  40635  H        173.2560  196.8930  166.1760 H     9212  MOL9212     0.2052
  40636  H        173.1570  197.4920  167.6540 H     9212  MOL9212     0.2052
  40637  O         92.7370    4.6560   12.0440 O.3   9213  MOL9213    -0.4105
  40638  H         93.6650    4.3440   12.0650 H     9213  MOL9213     0.2052
  40639  H         92.1420    3.8620   12.0270 H     9213  MOL9213     0.2052
  40640  O        128.4140  132.3900    9.1910 O.3   9214  MOL9214    -0.4105
  40641  H        128.0460  133.1010    8.6260 H     9214  MOL9214     0.2052
  40642  H        127.6570  131.8870    9.5880 H     9214  MOL9214     0.2052
  40643  O         38.8380  184.7880   66.4390 O.3   9215  MOL9215    -0.4105
  40644  H         39.4510  185.1260   65.7530 H     9215  MOL9215     0.2052
  40645  H         37.9200  184.7890   66.0620 H     9215  MOL9215     0.2052
  40646  O        145.1810   87.5850  249.9700 O.3   9216  MOL9216    -0.4105
  40647  H        145.6620   87.1160  250.6840 H     9216  MOL9216     0.2052
  40648  H        145.8490   87.9610  249.3400 H     9216  MOL9216     0.2052
  40649  O        106.2460  130.0810   39.1200 O.3   9217  MOL9217    -0.4105
  40650  H        106.4440  129.1230   39.1840 H     9217  MOL9217     0.2052
  40651  H        107.1050  130.5700   39.0370 H     9217  MOL9217     0.2052
  40652  O        167.9450    0.7080   22.3610 O.3   9218  MOL9218    -0.4105
  40653  H        168.8140    0.2550   22.3740 H     9218  MOL9218     0.2052
  40654  H        168.0910    1.6650   22.5780 H     9218  MOL9218     0.2052
  40655  O        132.1310   33.9250  240.5840 O.3   9219  MOL9219    -0.4105
  40656  H        131.5600   34.6680  240.2980 H     9219  MOL9219     0.2052
  40657  H        131.5490   33.1490  240.7940 H     9219  MOL9219     0.2052
  40658  O         54.5920    3.2830  145.8390 O.3   9220  MOL9220    -0.4105
  40659  H         54.6020    2.3030  145.8350 H     9220  MOL9220     0.2052
  40660  H         53.6460    3.5830  145.8480 H     9220  MOL9220     0.2052
  40661  O         15.3740   42.4940  258.9240 O.3   9221  MOL9221    -0.4105
  40662  H         14.9660   41.7410  259.3990 H     9221  MOL9221     0.2052
  40663  H         16.1180   42.1450  258.3680 H     9221  MOL9221     0.2052
  40664  O        103.1190    2.0830  125.7250 O.3   9222  MOL9222    -0.4105
  40665  H        103.8970    2.6520  125.5460 H     9222  MOL9222     0.2052
  40666  H        103.4400    1.1540  125.8660 H     9222  MOL9222     0.2052
  40667  O        165.5560  118.6350  156.0120 O.3   9223  MOL9223    -0.4105
  40668  H        165.8360  117.7480  155.7030 H     9223  MOL9223     0.2052
  40669  H        166.3710  119.1660  156.2100 H     9223  MOL9223     0.2052
  40670  O        102.5470  128.3840  277.8960 O.3   9224  MOL9224    -0.4105
  40671  H        103.0110  127.8340  278.5610 H     9224  MOL9224     0.2052
  40672  H        101.5980  128.0960  277.8620 H     9224  MOL9224     0.2052
  40673  O        102.2040  130.2130   52.3520 O.3   9225  MOL9225    -0.4105
  40674  H        102.8280  130.0210   51.6210 H     9225  MOL9225     0.2052
  40675  H        101.6300  130.9750   52.0780 H     9225  MOL9225     0.2052
  40676  O        132.0180   30.0360  129.4230 O.3   9226  MOL9226    -0.4105
  40677  H        132.2210   29.4340  130.1690 H     9226  MOL9226     0.2052
  40678  H        132.2840   30.9560  129.6850 H     9226  MOL9226     0.2052
  40679  O         67.3680   92.3190  282.2820 O.3   9227  MOL9227    -0.4105
  40680  H         67.9270   92.8920  282.8470 H     9227  MOL9227     0.2052
  40681  H         66.5320   92.8110  282.0730 H     9227  MOL9227     0.2052
  40682  O        128.5030   27.0740   99.6820 O.3   9228  MOL9228    -0.4105
  40683  H        129.4480   27.0470   99.4260 H     9228  MOL9228     0.2052
  40684  H        128.2100   28.0230   99.6890 H     9228  MOL9228     0.2052
  40685  O         34.9220   92.3460  185.5840 O.3   9229  MOL9229    -0.4105
  40686  H         35.8270   92.5760  185.8840 H     9229  MOL9229     0.2052
  40687  H         34.2730   92.8320  186.1550 H     9229  MOL9229     0.2052
  40688  O         27.6970   29.8720   71.0350 O.3   9230  MOL9230    -0.4105
  40689  H         27.3140   28.9780   70.9130 H     9230  MOL9230     0.2052
  40690  H         28.6780   29.8110   70.8990 H     9230  MOL9230     0.2052
  40691  O        148.5760  190.2160  127.5230 O.3   9231  MOL9231    -0.4105
  40692  H        147.8120  190.5840  127.0310 H     9231  MOL9231     0.2052
  40693  H        148.4130  189.2480  127.6700 H     9231  MOL9231     0.2052
  40694  O        112.4550   57.9660  280.4430 O.3   9232  MOL9232    -0.4105
  40695  H        112.6000   57.6220  279.5370 H     9232  MOL9232     0.2052
  40696  H        113.3350   58.2280  280.8200 H     9232  MOL9232     0.2052
  40697  O        165.6420  160.4760  255.5640 O.3   9233  MOL9233    -0.4105
  40698  H        165.7830  161.1310  254.8480 H     9233  MOL9233     0.2052
  40699  H        165.8470  159.5740  255.2050 H     9233  MOL9233     0.2052
  40700  O        160.8340  112.4870   32.6390 O.3   9234  MOL9234    -0.4105
  40701  H        159.8910  112.6470   32.4270 H     9234  MOL9234     0.2052
  40702  H        161.2880  113.3660   32.7170 H     9234  MOL9234     0.2052
  40703  O         74.1390  116.9230   66.3610 O.3   9235  MOL9235    -0.4105
  40704  H         73.5550  116.6840   67.1110 H     9235  MOL9235     0.2052
  40705  H         74.2180  117.9120   66.3320 H     9235  MOL9235     0.2052
  40706  O         40.5070   59.7680   84.5520 O.3   9236  MOL9236    -0.4105
  40707  H         41.4200   59.7880   84.9080 H     9236  MOL9236     0.2052
  40708  H         40.0570   58.9520   84.8930 H     9236  MOL9236     0.2052
  40709  O         22.1090   95.9550  117.3190 O.3   9237  MOL9237    -0.4105
  40710  H         22.9990   96.2630  117.0510 H     9237  MOL9237     0.2052
  40711  H         21.4700   96.7040  117.1950 H     9237  MOL9237     0.2052
  40712  O        144.8210    5.5530   83.5480 O.3   9238  MOL9238    -0.4105
  40713  H        144.9480    4.6090   83.7770 H     9238  MOL9238     0.2052
  40714  H        145.7090    5.9440   83.3380 H     9238  MOL9238     0.2052
  40715  O        151.6300    0.9160   85.5020 O.3   9239  MOL9239    -0.4105
  40716  H        151.6000    1.4960   84.7130 H     9239  MOL9239     0.2052
  40717  H        152.5680    0.6200   85.6350 H     9239  MOL9239     0.2052
  40718  O        182.8770   96.7820  212.1440 O.3   9240  MOL9240    -0.4105
  40719  H        183.6400   96.2140  212.3800 H     9240  MOL9240     0.2052
  40720  H        183.1420   97.7290  212.2800 H     9240  MOL9240     0.2052
  40721  O         72.9160   78.1480   23.5420 O.3   9241  MOL9241    -0.4105
  40722  H         73.2110   77.5640   22.8120 H     9241  MOL9241     0.2052
  40723  H         72.0620   77.7900   23.9000 H     9241  MOL9241     0.2052
  40724  O        182.0830   41.8400  103.0320 O.3   9242  MOL9242    -0.4105
  40725  H        182.2030   40.9300  102.6900 H     9242  MOL9242     0.2052
  40726  H        181.1090   42.0150  103.1130 H     9242  MOL9242     0.2052
  40727  O        186.6820  183.8450  204.3000 O.3   9243  MOL9243    -0.4105
  40728  H        186.3330  184.7600  204.3020 H     9243  MOL9243     0.2052
  40729  H        187.4430  183.8010  204.9360 H     9243  MOL9243     0.2052
  40730  O        173.7030  136.6620   86.7790 O.3   9244  MOL9244    -0.4105
  40731  H        173.8310  136.7960   85.8160 H     9244  MOL9244     0.2052
  40732  H        174.0360  135.7570   87.0130 H     9244  MOL9244     0.2052
  40733  O        121.4840   57.7820  277.9880 O.3   9245  MOL9245    -0.4105
  40734  H        122.4580   57.7680  277.8850 H     9245  MOL9245     0.2052
  40735  H        121.1640   56.8440  278.0410 H     9245  MOL9245     0.2052
  40736  O        197.7020   60.9790  226.3690 O.3   9246  MOL9246    -0.4105
  40737  H        197.6740   61.9070  226.0560 H     9246  MOL9246     0.2052
  40738  H        196.8160   60.5660  226.1980 H     9246  MOL9246     0.2052
  40739  O        198.5650  176.5060   70.3500 O.3   9247  MOL9247    -0.4105
  40740  H        197.6110  176.6870   70.2210 H     9247  MOL9247     0.2052
  40741  H        198.6670  175.9250   71.1480 H     9247  MOL9247     0.2052
  40742  O         69.6500  177.6110  172.6010 O.3   9248  MOL9248    -0.4105
  40743  H         69.5200  178.5730  172.4660 H     9248  MOL9248     0.2052
  40744  H         70.6250  177.4320  172.6460 H     9248  MOL9248     0.2052
  40745  O         39.0480  163.5100  183.1050 O.3   9249  MOL9249    -0.4105
  40746  H         39.2200  162.5540  183.2350 H     9249  MOL9249     0.2052
  40747  H         39.9020  163.9470  182.8520 H     9249  MOL9249     0.2052
  40748  O         22.9340  177.7760  107.3680 O.3   9250  MOL9250    -0.4105
  40749  H         23.6240  177.6210  106.6880 H     9250  MOL9250     0.2052
  40750  H         23.1470  178.6240  107.8370 H     9250  MOL9250     0.2052
  40751  O        138.8310    8.3310   19.4540 O.3   9251  MOL9251    -0.4105
  40752  H        138.3020    8.9960   19.9410 H     9251  MOL9251     0.2052
  40753  H        139.7270    8.7170   19.2740 H     9251  MOL9251     0.2052
  40754  O         63.3410  179.0260  140.3220 O.3   9252  MOL9252    -0.4105
  40755  H         64.0720  178.4010  140.1330 H     9252  MOL9252     0.2052
  40756  H         62.7270  178.5990  140.9750 H     9252  MOL9252     0.2052
  40757  O        158.7670  127.3600   43.3870 O.3   9253  MOL9253    -0.4105
  40758  H        157.8340  127.6590   43.3450 H     9253  MOL9253     0.2052
  40759  H        159.2030  127.5830   42.5240 H     9253  MOL9253     0.2052
  40760  O        149.2660  159.8570   15.8100 O.3   9254  MOL9254    -0.4105
  40761  H        149.9210  160.5700   15.6620 H     9254  MOL9254     0.2052
  40762  H        148.6140  160.1710   16.4890 H     9254  MOL9254     0.2052
  40763  O        151.4470   76.9550   64.1980 O.3   9255  MOL9255    -0.4105
  40764  H        150.9410   76.2280   64.6160 H     9255  MOL9255     0.2052
  40765  H        150.8020   77.6260   63.8560 H     9255  MOL9255     0.2052
  40766  O         74.5210   88.5600  235.9610 O.3   9256  MOL9256    -0.4105
  40767  H         74.2130   88.3280  235.0600 H     9256  MOL9256     0.2052
  40768  H         75.3770   88.0880  236.1280 H     9256  MOL9256     0.2052
  40769  O        174.9230   21.2530  151.8390 O.3   9257  MOL9257    -0.4105
  40770  H        175.3020   22.1570  151.8500 H     9257  MOL9257     0.2052
  40771  H        173.9380   21.3300  151.7500 H     9257  MOL9257     0.2052
  40772  O        136.8200  168.3870   85.9900 O.3   9258  MOL9258    -0.4105
  40773  H        135.8660  168.1990   85.8610 H     9258  MOL9258     0.2052
  40774  H        137.2470  167.5770   86.3720 H     9258  MOL9258     0.2052
  40775  O         74.6240  165.6380  168.6460 O.3   9259  MOL9259    -0.4105
  40776  H         74.8400  164.8120  169.1260 H     9259  MOL9259     0.2052
  40777  H         74.0120  166.1760  169.2120 H     9259  MOL9259     0.2052
  40778  O        167.0820   82.0570  192.7410 O.3   9260  MOL9260    -0.4105
  40779  H        166.1410   82.2890  192.5900 H     9260  MOL9260     0.2052
  40780  H        167.1660   81.6850  193.6570 H     9260  MOL9260     0.2052
  40781  O        133.1790   22.8150  100.6950 O.3   9261  MOL9261    -0.4105
  40782  H        133.2400   23.7880  100.7940 H     9261  MOL9261     0.2052
  40783  H        133.4580   22.5780   99.7720 H     9261  MOL9261     0.2052
  40784  O        171.5260   94.8940  137.9190 O.3   9262  MOL9262    -0.4105
  40785  H        171.2010   94.0450  137.5520 H     9262  MOL9262     0.2052
  40786  H        172.4790   94.7800  138.1700 H     9262  MOL9262     0.2052
  40787  O        128.6040  181.0360  180.5960 O.3   9263  MOL9263    -0.4105
  40788  H        128.5300  180.5160  181.4230 H     9263  MOL9263     0.2052
  40789  H        127.8020  180.8520  180.0410 H     9263  MOL9263     0.2052
  40790  O        161.7340  107.8060  264.3720 O.3   9264  MOL9264    -0.4105
  40791  H        161.6550  108.6290  263.8460 H     9264  MOL9264     0.2052
  40792  H        162.6420  107.4340  264.2320 H     9264  MOL9264     0.2052
  40793  O         79.9310   99.0680  170.1560 O.3   9265  MOL9265    -0.4105
  40794  H         79.8120  100.0390  170.2150 H     9265  MOL9265     0.2052
  40795  H         80.5860   98.8790  169.4350 H     9265  MOL9265     0.2052
  40796  O        181.2070  132.3390  277.8260 O.3   9266  MOL9266    -0.4105
  40797  H        181.4860  133.0340  278.4580 H     9266  MOL9266     0.2052
  40798  H        180.3590  131.9420  278.1560 H     9266  MOL9266     0.2052
  40799  O        187.7350  180.2030  223.5670 O.3   9267  MOL9267    -0.4105
  40800  H        187.9060  179.8510  224.4660 H     9267  MOL9267     0.2052
  40801  H        188.0110  181.1560  223.5490 H     9267  MOL9267     0.2052
  40802  O        137.1280  169.7130  241.3300 O.3   9268  MOL9268    -0.4105
  40803  H        137.9610  169.2180  241.1880 H     9268  MOL9268     0.2052
  40804  H        136.4620  169.0930  241.7260 H     9268  MOL9268     0.2052
  40805  O         19.2010   44.7290   22.8620 O.3   9269  MOL9269    -0.4105
  40806  H         18.4770   44.0830   23.0040 H     9269  MOL9269     0.2052
  40807  H         19.4230   44.7390   21.8950 H     9269  MOL9269     0.2052
  40808  O         37.2890  160.9690  190.9810 O.3   9270  MOL9270    -0.4105
  40809  H         37.9890  160.2870  191.0550 H     9270  MOL9270     0.2052
  40810  H         36.4160  160.5090  190.8780 H     9270  MOL9270     0.2052
  40811  O        193.7750  153.8050  188.4120 O.3   9271  MOL9271    -0.4105
  40812  H        194.5710  153.9540  188.9630 H     9271  MOL9271     0.2052
  40813  H        194.0510  153.8130  187.4590 H     9271  MOL9271     0.2052
  40814  O         37.6640  174.1390  221.3800 O.3   9272  MOL9272    -0.4105
  40815  H         38.2880  173.3870  221.4550 H     9272  MOL9272     0.2052
  40816  H         36.7400  173.7800  221.4050 H     9272  MOL9272     0.2052
  40817  O        167.5380   29.6140    0.2030 O.3   9273  MOL9273    -0.4105
  40818  H        168.1820   30.3470    0.1160 H     9273  MOL9273     0.2052
  40819  H        167.0290   29.7470    1.0440 H     9273  MOL9273     0.2052
  40820  O        181.1610  170.9460  275.1030 O.3   9274  MOL9274    -0.4105
  40821  H        180.2830  171.3650  275.2260 H     9274  MOL9274     0.2052
  40822  H        181.8480  171.6630  275.0920 H     9274  MOL9274     0.2052
  40823  O        159.2530   71.9020  245.5330 O.3   9275  MOL9275    -0.4105
  40824  H        159.9500   72.5040  245.1970 H     9275  MOL9275     0.2052
  40825  H        158.4080   72.1080  245.0540 H     9275  MOL9275     0.2052
  40826  O         25.1940  196.9820  106.6100 O.3   9276  MOL9276    -0.4105
  40827  H         24.5490  197.1860  107.3200 H     9276  MOL9276     0.2052
  40828  H         25.8720  197.7060  106.5880 H     9276  MOL9276     0.2052
  40829  O         37.5010   79.7610  227.6340 O.3   9277  MOL9277    -0.4105
  40830  H         37.9280   79.6050  226.7650 H     9277  MOL9277     0.2052
  40831  H         37.5670   78.9260  228.1660 H     9277  MOL9277     0.2052
  40832  O        133.8580  117.6860  217.9620 O.3   9278  MOL9278    -0.4105
  40833  H        132.9550  117.3030  217.9560 H     9278  MOL9278     0.2052
  40834  H        133.7750  118.6750  217.9700 H     9278  MOL9278     0.2052
  40835  O        133.9520  150.0240  181.2430 O.3   9279  MOL9279    -0.4105
  40836  H        133.7550  150.7630  180.6290 H     9279  MOL9279     0.2052
  40837  H        134.7470  149.5400  180.9000 H     9279  MOL9279     0.2052
  40838  O         48.5940    0.9140   24.1460 O.3   9280  MOL9280    -0.4105
  40839  H         48.0750    0.9000   23.3140 H     9280  MOL9280     0.2052
  40840  H         48.8050    1.8590   24.3650 H     9280  MOL9280     0.2052
  40841  O         76.6360  106.4640   44.0520 O.3   9281  MOL9281    -0.4105
  40842  H         76.7380  107.3400   44.4800 H     9281  MOL9281     0.2052
  40843  H         75.7310  106.4200   43.6470 H     9281  MOL9281     0.2052
  40844  O         82.6170  129.9310  231.0830 O.3   9282  MOL9282    -0.4105
  40845  H         82.9160  129.5050  231.9140 H     9282  MOL9282     0.2052
  40846  H         83.4180  130.1470  230.5400 H     9282  MOL9282     0.2052
  40847  O        136.7480   19.4890  237.7160 O.3   9283  MOL9283    -0.4105
  40848  H        136.1320   19.8230  237.0320 H     9283  MOL9283     0.2052
  40849  H        137.6750   19.5970  237.3790 H     9283  MOL9283     0.2052
  40850  O         72.6310  134.7110   10.1390 O.3   9284  MOL9284    -0.4105
  40851  H         73.5220  134.8810    9.7690 H     9284  MOL9284     0.2052
  40852  H         71.9910  134.6330    9.3840 H     9284  MOL9284     0.2052
  40853  O        198.9950  105.7660  223.4530 O.3   9285  MOL9285    -0.4105
  40854  H        198.1850  106.2810  223.6480 H     9285  MOL9285     0.2052
  40855  H        198.7550  104.8040  223.4360 H     9285  MOL9285     0.2052
  40856  O        103.4580   92.1740   51.0060 O.3   9286  MOL9286    -0.4105
  40857  H        103.6230   91.2370   51.2420 H     9286  MOL9286     0.2052
  40858  H        103.0320   92.6200   51.7840 H     9286  MOL9286     0.2052
  40859  O         68.3030  137.8240   42.6190 O.3   9287  MOL9287    -0.4105
  40860  H         68.8890  137.0660   42.4110 H     9287  MOL9287     0.2052
  40861  H         67.6700  137.5410   43.3290 H     9287  MOL9287     0.2052
  40862  O        174.2100  184.0110  281.4320 O.3   9288  MOL9288    -0.4105
  40863  H        173.4200  183.5090  281.7200 H     9288  MOL9288     0.2052
  40864  H        174.3610  184.7490  282.0790 H     9288  MOL9288     0.2052
  40865  O        136.6740   80.0760  285.6960 O.3   9289  MOL9289    -0.4105
  40866  H        136.1810   80.7170  285.1430 H     9289  MOL9289     0.2052
  40867  H        137.5190   79.8480  285.2290 H     9289  MOL9289     0.2052
  40868  O        166.9550  144.7900  262.7120 O.3   9290  MOL9290    -0.4105
  40869  H        167.0550  144.2870  263.5480 H     9290  MOL9290     0.2052
  40870  H        167.0380  145.7560  262.9200 H     9290  MOL9290     0.2052
  40871  O         76.1320  146.6660   29.0650 O.3   9291  MOL9291    -0.4105
  40872  H         76.0360  147.0020   29.9810 H     9291  MOL9291     0.2052
  40873  H         75.3630  146.0710   28.8700 H     9291  MOL9291     0.2052
  40874  O        130.3980   97.3820   77.9600 O.3   9292  MOL9292    -0.4105
  40875  H        130.0990   98.2090   77.5280 H     9292  MOL9292     0.2052
  40876  H        131.3830   97.4300   78.0740 H     9292  MOL9292     0.2052
  40877  O         77.9630   27.9110  173.6890 O.3   9293  MOL9293    -0.4105
  40878  H         78.0470   28.2020  174.6210 H     9293  MOL9293     0.2052
  40879  H         78.8670   27.9140  173.2800 H     9293  MOL9293     0.2052
  40880  O        198.2420  172.5570  152.4420 O.3   9294  MOL9294    -0.4105
  40881  H        198.7930  173.3510  152.2770 H     9294  MOL9294     0.2052
  40882  H        198.6490  172.0460  153.1880 H     9294  MOL9294     0.2052
  40883  O        144.9100  102.5170   47.3020 O.3   9295  MOL9295    -0.4105
  40884  H        145.7630  102.3780   46.8400 H     9295  MOL9295     0.2052
  40885  H        145.0520  103.1830   48.0230 H     9295  MOL9295     0.2052
  40886  O        146.0140  143.5680  180.5230 O.3   9296  MOL9296    -0.4105
  40887  H        145.6160  144.2210  181.1360 H     9296  MOL9296     0.2052
  40888  H        145.4010  143.4500  179.7530 H     9296  MOL9296     0.2052
  40889  O        162.5290   68.8780  180.4810 O.3   9297  MOL9297    -0.4105
  40890  H        162.4190   69.5770  179.8030 H     9297  MOL9297     0.2052
  40891  H        161.8730   68.1570  180.2930 H     9297  MOL9297     0.2052
  40892  O         84.7150  167.1890  179.4000 O.3   9298  MOL9298    -0.4105
  40893  H         83.8760  167.6940  179.3520 H     9298  MOL9298     0.2052
  40894  H         85.4630  167.8110  179.2050 H     9298  MOL9298     0.2052
  40895  O         43.2060  116.2330   21.6620 O.3   9299  MOL9299    -0.4105
  40896  H         42.9470  116.9020   22.3300 H     9299  MOL9299     0.2052
  40897  H         43.4030  115.3830   22.1350 H     9299  MOL9299     0.2052
  40898  O        143.8140   96.6680   26.0270 O.3   9300  MOL9300    -0.4105
  40899  H        144.7810   96.5370   25.9320 H     9300  MOL9300     0.2052
  40900  H        143.6460   97.6310   26.1980 H     9300  MOL9300     0.2052
  40901  O        139.4320  170.5720  136.1790 O.3   9301  MOL9301    -0.4105
  40902  H        139.1050  171.4960  136.1670 H     9301  MOL9301     0.2052
  40903  H        138.7510  170.0080  136.6300 H     9301  MOL9301     0.2052
  40904  O        122.0080  107.8760  237.3910 O.3   9302  MOL9302    -0.4105
  40905  H        121.9920  106.9570  237.7300 H     9302  MOL9302     0.2052
  40906  H        122.9520  108.1240  237.2110 H     9302  MOL9302     0.2052
  40907  O         29.1510  171.6810  277.4030 O.3   9303  MOL9303    -0.4105
  40908  H         30.0470  171.5650  277.7840 H     9303  MOL9303     0.2052
  40909  H         29.0380  171.0220  276.6700 H     9303  MOL9303     0.2052
  40910  O         57.0720  133.8730   12.3820 O.3   9304  MOL9304    -0.4105
  40911  H         56.3100  134.4900   12.3600 H     9304  MOL9304     0.2052
  40912  H         56.7220  132.9460   12.3390 H     9304  MOL9304     0.2052
  40913  O          4.1490  173.2190  186.5610 O.3   9305  MOL9305    -0.4105
  40914  H          4.9120  173.7750  186.8240 H     9305  MOL9305     0.2052
  40915  H          3.5010  173.7910  186.0730 H     9305  MOL9305     0.2052
  40916  O          5.2110   92.9630  134.8970 O.3   9306  MOL9306    -0.4105
  40917  H          4.9150   92.6440  135.7750 H     9306  MOL9306     0.2052
  40918  H          4.7210   92.4530  134.2010 H     9306  MOL9306     0.2052
  40919  O         34.0890   83.5480   29.6900 O.3   9307  MOL9307    -0.4105
  40920  H         33.2200   83.3040   29.3090 H     9307  MOL9307     0.2052
  40921  H         33.9840   84.4060   30.1770 H     9307  MOL9307     0.2052
  40922  O        154.9260   57.2200  241.1890 O.3   9308  MOL9308    -0.4105
  40923  H        154.3530   56.5800  240.7170 H     9308  MOL9308     0.2052
  40924  H        155.5860   57.5810  240.5430 H     9308  MOL9308     0.2052
  40925  O         72.9080   89.0120  222.1090 O.3   9309  MOL9309    -0.4105
  40926  H         72.3360   89.7170  222.4790 H     9309  MOL9309     0.2052
  40927  H         73.4680   89.4090  221.3930 H     9309  MOL9309     0.2052
  40928  O        140.5400  109.2490  174.8700 O.3   9310  MOL9310    -0.4105
  40929  H        140.3260  110.1730  174.6230 H     9310  MOL9310     0.2052
  40930  H        140.7210  108.7390  174.0380 H     9310  MOL9310     0.2052
  40931  O        172.4610  176.0570  154.0100 O.3   9311  MOL9311    -0.4105
  40932  H        171.4890  176.1720  154.0580 H     9311  MOL9311     0.2052
  40933  H        172.6660  175.0940  154.1340 H     9311  MOL9311     0.2052
  40934  O         89.2110   94.1240  169.3640 O.3   9312  MOL9312    -0.4105
  40935  H         89.1260   94.0200  168.3930 H     9312  MOL9312     0.2052
  40936  H         89.8280   94.8820  169.5420 H     9312  MOL9312     0.2052
  40937  O         73.5330    0.3090  179.5520 O.3   9313  MOL9313    -0.4105
  40938  H         73.6020    0.5540  178.6060 H     9313  MOL9313     0.2052
  40939  H         73.3300    1.1300  180.0720 H     9313  MOL9313     0.2052
  40940  O        151.8280  173.2610   76.2530 O.3   9314  MOL9314    -0.4105
  40941  H        151.0190  173.3270   75.7040 H     9314  MOL9314     0.2052
  40942  H        151.5600  173.2960   77.2070 H     9314  MOL9314     0.2052
  40943  O        133.8990   28.0330  293.9850 O.3   9315  MOL9315    -0.4105
  40944  H        133.6470   28.6870  293.3010 H     9315  MOL9315     0.2052
  40945  H        134.4130   28.5040  294.6920 H     9315  MOL9315     0.2052
  40946  O        193.8030   15.3780   26.4800 O.3   9316  MOL9316    -0.4105
  40947  H        193.0460   15.7860   26.0090 H     9316  MOL9316     0.2052
  40948  H        194.6410   15.7290   26.0810 H     9316  MOL9316     0.2052
  40949  O          4.4240   85.8030  239.2390 O.3   9317  MOL9317    -0.4105
  40950  H          3.7780   85.9290  239.9650 H     9317  MOL9317     0.2052
  40951  H          4.6030   86.6870  238.8250 H     9317  MOL9317     0.2052
  40952  O         58.0170   73.2140   48.5290 O.3   9318  MOL9318    -0.4105
  40953  H         58.2180   74.0430   49.0130 H     9318  MOL9318     0.2052
  40954  H         58.4070   72.4560   49.0370 H     9318  MOL9318     0.2052
  40955  O         14.8680   39.5990  110.2580 O.3   9319  MOL9319    -0.4105
  40956  H         15.7610   39.4690  110.6390 H     9319  MOL9319     0.2052
  40957  H         14.2550   38.9350  110.6680 H     9319  MOL9319     0.2052
  40958  O         26.5080   30.4940  153.5790 O.3   9320  MOL9320    -0.4105
  40959  H         25.6300   30.8210  153.8660 H     9320  MOL9320     0.2052
  40960  H         26.4280   29.5250  153.3780 H     9320  MOL9320     0.2052
  40961  O         91.5240   18.8210   57.9760 O.3   9321  MOL9321    -0.4105
  40962  H         92.2060   19.4990   57.7870 H     9321  MOL9321     0.2052
  40963  H         90.6310   19.2380   57.8630 H     9321  MOL9321     0.2052
  40964  O         72.3590   12.2230    3.3700 O.3   9322  MOL9322    -0.4105
  40965  H         73.3070   12.0770    3.1700 H     9322  MOL9322     0.2052
  40966  H         72.1340   11.7200    4.1950 H     9322  MOL9322     0.2052
  40967  O        182.5140  184.8830   23.7020 O.3   9323  MOL9323    -0.4105
  40968  H        183.2080  185.5630   23.5750 H     9323  MOL9323     0.2052
  40969  H        182.9560  183.9970   23.7660 H     9323  MOL9323     0.2052
  40970  O        143.0690   24.2080  194.2420 O.3   9324  MOL9324    -0.4105
  40971  H        142.2890   23.6290  194.3710 H     9324  MOL9324     0.2052
  40972  H        142.7750   25.0200  193.7530 H     9324  MOL9324     0.2052
  40973  O        185.4360  108.9740  243.9390 O.3   9325  MOL9325    -0.4105
  40974  H        185.0010  108.6510  244.7560 H     9325  MOL9325     0.2052
  40975  H        186.3450  108.5790  243.8940 H     9325  MOL9325     0.2052
  40976  O         77.0840   75.7550  177.1800 O.3   9326  MOL9326    -0.4105
  40977  H         77.8670   75.1730  177.0920 H     9326  MOL9326     0.2052
  40978  H         76.2700   75.1880  177.1430 H     9326  MOL9326     0.2052
  40979  O        189.7530   33.6100  199.1720 O.3   9327  MOL9327    -0.4105
  40980  H        188.9340   33.9810  199.5610 H     9327  MOL9327     0.2052
  40981  H        189.6990   32.6210  199.2190 H     9327  MOL9327     0.2052
  40982  O          5.7030   42.7300   26.7490 O.3   9328  MOL9328    -0.4105
  40983  H          6.3650   42.0070   26.7830 H     9328  MOL9328     0.2052
  40984  H          4.8430   42.3790   27.0980 H     9328  MOL9328     0.2052
  40985  O        161.3970  167.7280    2.8520 O.3   9329  MOL9329    -0.4105
  40986  H        160.4720  167.6430    2.5380 H     9329  MOL9329     0.2052
  40987  H        161.6060  168.6940    2.9430 H     9329  MOL9329     0.2052
  40988  O         73.1270  145.0690   68.6460 O.3   9330  MOL9330    -0.4105
  40989  H         73.2100  146.0450   68.6750 H     9330  MOL9330     0.2052
  40990  H         72.2120  144.8260   68.9460 H     9330  MOL9330     0.2052
  40991  O         58.8910   10.0960  299.6660 O.3   9331  MOL9331    -0.4105
  40992  H         59.7810   10.4350  299.4340 H     9331  MOL9331     0.2052
  40993  H         58.9490    9.1100  299.7550 H     9331  MOL9331     0.2052
  40994  O         68.6810   95.7320  267.2950 O.3   9332  MOL9332    -0.4105
  40995  H         68.9880   95.4080  268.1670 H     9332  MOL9332     0.2052
  40996  H         69.2210   95.2890  266.5910 H     9332  MOL9332     0.2052
  40997  O         90.0080   52.7290  182.5860 O.3   9333  MOL9333    -0.4105
  40998  H         89.4610   53.4310  182.1750 H     9333  MOL9333     0.2052
  40999  H         90.8720   53.1300  182.8620 H     9333  MOL9333     0.2052
  41000  O         98.6020   20.7030  288.2790 O.3   9334  MOL9334    -0.4105
  41001  H         97.7020   21.0900  288.2700 H     9334  MOL9334     0.2052
  41002  H         99.0960   21.0480  287.4900 H     9334  MOL9334     0.2052
  41003  O        158.9610  101.2610  140.0800 O.3   9335  MOL9335    -0.4105
  41004  H        158.4370  101.4010  140.8970 H     9335  MOL9335     0.2052
  41005  H        159.9190  101.2020  140.3310 H     9335  MOL9335     0.2052
  41006  O        149.3960  153.2540   78.1470 O.3   9336  MOL9336    -0.4105
  41007  H        149.2090  152.8430   77.2760 H     9336  MOL9336     0.2052
  41008  H        148.9460  152.7140   78.8470 H     9336  MOL9336     0.2052
  41009  O         56.5300   41.6240  276.0410 O.3   9337  MOL9337    -0.4105
  41010  H         57.3510   41.3260  275.5970 H     9337  MOL9337     0.2052
  41011  H         56.6760   41.5840  277.0220 H     9337  MOL9337     0.2052
  41012  O        115.2350   61.8900  276.1770 O.3   9338  MOL9338    -0.4105
  41013  H        115.0470   61.4680  275.3120 H     9338  MOL9338     0.2052
  41014  H        115.7430   61.2440  276.7330 H     9338  MOL9338     0.2052
  41015  O         57.6400  101.0450  275.1240 O.3   9339  MOL9339    -0.4105
  41016  H         57.6070  100.2300  274.5800 H     9339  MOL9339     0.2052
  41017  H         57.0070  101.7030  274.7360 H     9339  MOL9339     0.2052
  41018  O        168.9160   52.5150  178.2890 O.3   9340  MOL9340    -0.4105
  41019  H        168.1860   53.1230  178.5280 H     9340  MOL9340     0.2052
  41020  H        168.5310   51.7470  177.7930 H     9340  MOL9340     0.2052
  41021  O        114.8650   12.7190  113.9180 O.3   9341  MOL9341    -0.4105
  41022  H        114.5670   12.3450  113.0630 H     9341  MOL9341     0.2052
  41023  H        114.2380   12.4150  114.6250 H     9341  MOL9341     0.2052
  41024  O        157.0150   61.2020   39.6090 O.3   9342  MOL9342    -0.4105
  41025  H        156.2030   60.6580   39.6720 H     9342  MOL9342     0.2052
  41026  H        156.9860   61.7060   38.7550 H     9342  MOL9342     0.2052
  41027  O        163.2960   50.3420  218.2750 O.3   9343  MOL9343    -0.4105
  41028  H        163.8490   50.4620  217.4750 H     9343  MOL9343     0.2052
  41029  H        163.1700   49.3690  218.4220 H     9343  MOL9343     0.2052
  41030  O         26.8060   24.6210  218.7170 O.3   9344  MOL9344    -0.4105
  41031  H         26.1320   24.1210  219.2220 H     9344  MOL9344     0.2052
  41032  H         27.7030   24.3420  219.0350 H     9344  MOL9344     0.2052
  41033  O         19.4930   92.6220   98.0420 O.3   9345  MOL9345    -0.4105
  41034  H         19.1230   91.8020   97.6510 H     9345  MOL9345     0.2052
  41035  H         20.4460   92.4570   98.2640 H     9345  MOL9345     0.2052
  41036  O         20.3340   85.2900   21.2070 O.3   9346  MOL9346    -0.4105
  41037  H         20.4630   85.9600   21.9120 H     9346  MOL9346     0.2052
  41038  H         21.1460   84.7220   21.1670 H     9346  MOL9346     0.2052
  41039  O        101.5280  164.8900  286.9890 O.3   9347  MOL9347    -0.4105
  41040  H        100.8090  164.2800  287.2570 H     9347  MOL9347     0.2052
  41041  H        101.3980  165.7520  287.4630 H     9347  MOL9347     0.2052
  41042  O         30.7240  113.8340  171.2880 O.3   9348  MOL9348    -0.4105
  41043  H         30.1370  113.0520  171.2360 H     9348  MOL9348     0.2052
  41044  H         31.6630  113.5160  171.3260 H     9348  MOL9348     0.2052
  41045  O        198.6950  190.3860  241.8670 O.3   9349  MOL9349    -0.4105
  41046  H        198.0010  189.6950  241.8280 H     9349  MOL9349     0.2052
  41047  H        199.5740  189.9380  241.9680 H     9349  MOL9349     0.2052
  41048  O        195.8000    4.9540   77.5640 O.3   9350  MOL9350    -0.4105
  41049  H        195.1170    5.4760   78.0350 H     9350  MOL9350     0.2052
  41050  H        195.3400    4.3230   76.9510 H     9350  MOL9350     0.2052
  41051  O        165.8960   13.7580  263.2050 O.3   9351  MOL9351    -0.4105
  41052  H        165.2800   14.0360  263.9140 H     9351  MOL9351     0.2052
  41053  H        166.0190   14.5210  262.5830 H     9351  MOL9351     0.2052
  41054  O         20.6450   26.6140   96.1700 O.3   9352  MOL9352    -0.4105
  41055  H         21.1080   27.4700   96.2860 H     9352  MOL9352     0.2052
  41056  H         19.7250   26.7070   96.5300 H     9352  MOL9352     0.2052
  41057  O        106.0790   81.3930  188.8820 O.3   9353  MOL9353    -0.4105
  41058  H        106.8270   81.8840  188.4820 H     9353  MOL9353     0.2052
  41059  H        105.6250   81.9940  189.5280 H     9353  MOL9353     0.2052
  41060  O         78.8230   18.2730  199.7280 O.3   9354  MOL9354    -0.4105
  41061  H         79.8030   18.2790  199.7380 H     9354  MOL9354     0.2052
  41062  H         78.5150   17.3610  199.9700 H     9354  MOL9354     0.2052
  41063  O        135.8050  129.7280  179.5330 O.3   9355  MOL9355    -0.4105
  41064  H        135.9870  129.0010  178.9020 H     9355  MOL9355     0.2052
  41065  H        134.8400  129.9540  179.4770 H     9355  MOL9355     0.2052
  41066  O         25.4180   90.7950    5.3310 O.3   9356  MOL9356    -0.4105
  41067  H         25.6300   91.5670    5.8960 H     9356  MOL9356     0.2052
  41068  H         25.0020   91.1290    4.4930 H     9356  MOL9356     0.2052
  41069  O         21.1800  142.3940   76.1410 O.3   9357  MOL9357    -0.4105
  41070  H         20.4460  143.0430   76.1020 H     9357  MOL9357     0.2052
  41071  H         20.7870  141.4840   76.1900 H     9357  MOL9357     0.2052
  41072  O        174.5900  140.2440  136.3630 O.3   9358  MOL9358    -0.4105
  41073  H        174.1190  141.0950  136.2400 H     9358  MOL9358     0.2052
  41074  H        174.1880  139.5760  135.7500 H     9358  MOL9358     0.2052
  41075  O         14.5330   14.0090  104.4780 O.3   9359  MOL9359    -0.4105
  41076  H         14.7610   13.0730  104.2950 H     9359  MOL9359     0.2052
  41077  H         13.6080   14.1710  104.1570 H     9359  MOL9359     0.2052
  41078  O        170.6920   49.7590  213.5000 O.3   9360  MOL9360    -0.4105
  41079  H        171.3640   49.3070  214.0510 H     9360  MOL9360     0.2052
  41080  H        170.3250   49.1000  212.8550 H     9360  MOL9360     0.2052
  41081  O        119.5960    8.7480  181.4260 O.3   9361  MOL9361    -0.4105
  41082  H        119.5220    9.2570  182.2600 H     9361  MOL9361     0.2052
  41083  H        120.5590    8.6280  181.2200 H     9361  MOL9361     0.2052
  41084  O         69.7060   83.6120  262.6620 O.3   9362  MOL9362    -0.4105
  41085  H         69.7450   84.4700  263.1340 H     9362  MOL9362     0.2052
  41086  H         70.6140   83.4050  262.3190 H     9362  MOL9362     0.2052
  41087  O        105.7240  174.3300  211.5450 O.3   9363  MOL9363    -0.4105
  41088  H        106.4640  174.9680  211.6150 H     9363  MOL9363     0.2052
  41089  H        106.1000  173.4400  211.3220 H     9363  MOL9363     0.2052
  41090  O         80.8250  187.5830  171.8480 O.3   9364  MOL9364    -0.4105
  41091  H         80.4000  186.9830  172.4960 H     9364  MOL9364     0.2052
  41092  H         81.7010  187.1930  171.5910 H     9364  MOL9364     0.2052
  41093  O         59.0720   34.1610  185.6660 O.3   9365  MOL9365    -0.4105
  41094  H         59.7340   34.8500  185.4460 H     9365  MOL9365     0.2052
  41095  H         58.4930   34.0220  184.8730 H     9365  MOL9365     0.2052
  41096  O        183.0070   99.4750  203.3450 O.3   9366  MOL9366    -0.4105
  41097  H        182.2350   99.1050  203.8230 H     9366  MOL9366     0.2052
  41098  H        183.8260   99.2470  203.8570 H     9366  MOL9366     0.2052
  41099  O         71.7580  182.8070   31.8130 O.3   9367  MOL9367    -0.4105
  41100  H         71.3940  183.5760   32.3000 H     9367  MOL9367     0.2052
  41101  H         72.7420  182.8000   31.9350 H     9367  MOL9367     0.2052
  41102  O         37.9290  174.4810  247.7430 O.3   9368  MOL9368    -0.4105
  41103  H         38.3540  174.5590  248.6220 H     9368  MOL9368     0.2052
  41104  H         38.4860  173.8820  247.1810 H     9368  MOL9368     0.2052
  41105  O        160.7920  103.2430   55.2500 O.3   9369  MOL9369    -0.4105
  41106  H        161.4240  103.5640   54.5730 H     9369  MOL9369     0.2052
  41107  H        160.3130  104.0280   55.6240 H     9369  MOL9369     0.2052
  41108  O         50.9560  170.2660   38.2630 O.3   9370  MOL9370    -0.4105
  41109  H         50.3270  169.6300   37.8620 H     9370  MOL9370     0.2052
  41110  H         51.8390  169.8200   38.3440 H     9370  MOL9370     0.2052
  41111  O        150.4560  193.2200  171.7780 O.3   9371  MOL9371    -0.4105
  41112  H        150.6290  193.0700  172.7310 H     9371  MOL9371     0.2052
  41113  H        149.7640  193.9260  171.6950 H     9371  MOL9371     0.2052
  41114  O        185.3530  172.7520  225.8970 O.3   9372  MOL9372    -0.4105
  41115  H        184.9430  173.1180  225.0860 H     9372  MOL9372     0.2052
  41116  H        185.2000  171.7710  225.9070 H     9372  MOL9372     0.2052
  41117  O        173.3400   86.8240  166.5390 O.3   9373  MOL9373    -0.4105
  41118  H        172.5980   87.4580  166.4470 H     9373  MOL9373     0.2052
  41119  H        172.9620   85.9350  166.7670 H     9373  MOL9373     0.2052
  41120  O         72.6490  120.9560   26.1590 O.3   9374  MOL9374    -0.4105
  41121  H         71.9410  120.6310   26.7540 H     9374  MOL9374     0.2052
  41122  H         72.2310  121.5280   25.4630 H     9374  MOL9374     0.2052
  41123  O        195.3120   35.7970   18.2810 O.3   9375  MOL9375    -0.4105
  41124  H        194.9820   35.3400   19.0830 H     9375  MOL9375     0.2052
  41125  H        195.7050   36.6650   18.5590 H     9375  MOL9375     0.2052
  41126  O        183.9380  124.4380  264.6120 O.3   9376  MOL9376    -0.4105
  41127  H        184.4680  125.1380  264.1780 H     9376  MOL9376     0.2052
  41128  H        184.4020  123.5710  264.4810 H     9376  MOL9376     0.2052
  41129  O        101.0570   55.8400  252.7970 O.3   9377  MOL9377    -0.4105
  41130  H        100.2810   55.4850  252.3150 H     9377  MOL9377     0.2052
  41131  H        101.2750   56.7320  252.4220 H     9377  MOL9377     0.2052
  41132  O         62.0340   37.6360  116.7450 O.3   9378  MOL9378    -0.4105
  41133  H         62.7590   37.5830  116.0870 H     9378  MOL9378     0.2052
  41134  H         62.2690   37.0520  117.5120 H     9378  MOL9378     0.2052
  41135  O         82.8060   58.9950  248.0440 O.3   9379  MOL9379    -0.4105
  41136  H         81.8750   59.0350  248.3470 H     9379  MOL9379     0.2052
  41137  H         83.0030   59.8250  247.5370 H     9379  MOL9379     0.2052
  41138  O        176.1590   11.2840   77.9140 O.3   9380  MOL9380    -0.4105
  41139  H        176.0960   10.6020   78.6160 H     9380  MOL9380     0.2052
  41140  H        177.0520   11.2090   77.4880 H     9380  MOL9380     0.2052
  41141  O        188.5570   99.4980  135.6100 O.3   9381  MOL9381    -0.4105
  41142  H        188.9640   98.6470  135.8750 H     9381  MOL9381     0.2052
  41143  H        189.1380  100.2340  135.9340 H     9381  MOL9381     0.2052
  41144  O        100.6160   70.7800   35.8720 O.3   9382  MOL9382    -0.4105
  41145  H        100.9100   71.1230   36.7420 H     9382  MOL9382     0.2052
  41146  H        100.2410   71.5370   35.3500 H     9382  MOL9382     0.2052
  41147  O        154.7290  121.5340  129.2330 O.3   9383  MOL9383    -0.4105
  41148  H        155.1370  120.7950  128.7350 H     9383  MOL9383     0.2052
  41149  H        155.4500  122.0270  129.7040 H     9383  MOL9383     0.2052
  41150  O        166.9650   44.7360   54.3000 O.3   9384  MOL9384    -0.4105
  41151  H        166.5510   45.1210   55.1000 H     9384  MOL9384     0.2052
  41152  H        166.2830   44.7080   53.5800 H     9384  MOL9384     0.2052
  41153  O        198.2520   45.9380  156.8800 O.3   9385  MOL9385    -0.4105
  41154  H        198.5790   46.3080  156.0340 H     9385  MOL9385     0.2052
  41155  H        198.0260   46.6930  157.4830 H     9385  MOL9385     0.2052
  41156  O        170.5680    1.2480  116.4760 O.3   9386  MOL9386    -0.4105
  41157  H        171.5070    1.0200  116.6340 H     9386  MOL9386     0.2052
  41158  H        170.1800    1.5760  117.3290 H     9386  MOL9386     0.2052
  41159  O         87.9800  118.9510  236.5370 O.3   9387  MOL9387    -0.4105
  41160  H         88.0390  117.9750  236.4570 H     9387  MOL9387     0.2052
  41161  H         88.1780  119.1980  237.4770 H     9387  MOL9387     0.2052
  41162  O         14.7130   43.4550  226.6410 O.3   9388  MOL9388    -0.4105
  41163  H         14.2460   44.3120  226.5550 H     9388  MOL9388     0.2052
  41164  H         15.6820   43.6390  226.7490 H     9388  MOL9388     0.2052
  41165  O         91.8580   13.2050   72.8750 O.3   9389  MOL9389    -0.4105
  41166  H         90.9970   13.3600   73.3170 H     9389  MOL9389     0.2052
  41167  H         91.8230   12.3200   72.4270 H     9389  MOL9389     0.2052
  41168  O        125.9470  163.8660  112.4120 O.3   9390  MOL9390    -0.4105
  41169  H        126.5910  163.2060  112.7430 H     9390  MOL9390     0.2052
  41170  H        125.2370  163.9780  113.0970 H     9390  MOL9390     0.2052
  41171  O        142.6440  142.2140  244.0130 O.3   9391  MOL9391    -0.4105
  41172  H        142.0520  142.6380  244.6690 H     9391  MOL9391     0.2052
  41173  H        142.1900  141.4050  243.6620 H     9391  MOL9391     0.2052
  41174  O        112.6720   10.8370  226.9520 O.3   9392  MOL9392    -0.4105
  41175  H        111.7710   11.1700  226.7560 H     9392  MOL9392     0.2052
  41176  H        113.2350   11.6080  227.2230 H     9392  MOL9392     0.2052
  41177  O        103.3370   25.1490  204.3660 O.3   9393  MOL9393    -0.4105
  41178  H        103.4120   26.1260  204.3370 H     9393  MOL9393     0.2052
  41179  H        104.2530   24.7670  204.3710 H     9393  MOL9393     0.2052
  41180  O         13.2130   79.9280  140.2080 O.3   9394  MOL9394    -0.4105
  41181  H         13.1790   80.7620  140.7220 H     9394  MOL9394     0.2052
  41182  H         12.2860   79.5920  140.1000 H     9394  MOL9394     0.2052
  41183  O         33.1200  182.6290  297.8210 O.3   9395  MOL9395    -0.4105
  41184  H         33.8800  182.1850  297.3880 H     9395  MOL9395     0.2052
  41185  H         32.4220  181.9470  297.9970 H     9395  MOL9395     0.2052
  41186  O        140.9970   40.5320   73.5720 O.3   9396  MOL9396    -0.4105
  41187  H        141.4450   41.4000   73.6580 H     9396  MOL9396     0.2052
  41188  H        140.4090   40.4070   74.3610 H     9396  MOL9396     0.2052
  41189  O        176.0030  148.4840   71.1940 O.3   9397  MOL9397    -0.4105
  41190  H        176.4540  148.9400   71.9350 H     9397  MOL9397     0.2052
  41191  H        175.0730  148.2800   71.4760 H     9397  MOL9397     0.2052
  41192  O         61.9940  147.8580  199.4810 O.3   9398  MOL9398    -0.4105
  41193  H         62.7710  147.3550  199.1590 H     9398  MOL9398     0.2052
  41194  H         62.1040  148.8060  199.2110 H     9398  MOL9398     0.2052
  41195  O        114.2270  176.9810  207.8510 O.3   9399  MOL9399    -0.4105
  41196  H        114.7310  176.1440  207.7760 H     9399  MOL9399     0.2052
  41197  H        113.6170  177.0480  207.0720 H     9399  MOL9399     0.2052
  41198  O         33.2650  153.8570  227.7370 O.3   9400  MOL9400    -0.4105
  41199  H         33.9900  154.1490  228.3280 H     9400  MOL9400     0.2052
  41200  H         33.3700  154.3180  226.8650 H     9400  MOL9400     0.2052
  41201  O        116.5720   78.8330  167.0740 O.3   9401  MOL9401    -0.4105
  41202  H        116.8370   78.7170  168.0100 H     9401  MOL9401     0.2052
  41203  H        117.0850   78.1860  166.5240 H     9401  MOL9401     0.2052
  41204  O        182.6940   42.1010  153.2620 O.3   9402  MOL9402    -0.4105
  41205  H        183.3750   42.3230  152.5940 H     9402  MOL9402     0.2052
  41206  H        182.5570   41.1180  153.2510 H     9402  MOL9402     0.2052
  41207  O        156.5340   78.3070   25.4910 O.3   9403  MOL9403    -0.4105
  41208  H        155.7880   78.4100   24.8630 H     9403  MOL9403     0.2052
  41209  H        156.7530   77.3420   25.5570 H     9403  MOL9403     0.2052
  41210  O         61.5310    9.8330  181.1950 O.3   9404  MOL9404    -0.4105
  41211  H         62.0310   10.6700  181.2960 H     9404  MOL9404     0.2052
  41212  H         60.5620   10.0430  181.2350 H     9404  MOL9404     0.2052
  41213  O        159.7870  199.1410   16.5430 O.3   9405  MOL9405    -0.4105
  41214  H        160.3690  199.1440   15.7540 H     9405  MOL9405     0.2052
  41215  H        159.4600  198.2150   16.6840 H     9405  MOL9405     0.2052
  41216  O         97.1730   50.8870  231.5790 O.3   9406  MOL9406    -0.4105
  41217  H         96.7380   51.7640  231.6140 H     9406  MOL9406     0.2052
  41218  H         98.1480   51.0270  231.4620 H     9406  MOL9406     0.2052
  41219  O        181.2260  144.1900  124.2400 O.3   9407  MOL9407    -0.4105
  41220  H        181.8250  144.9530  124.3820 H     9407  MOL9407     0.2052
  41221  H        180.2970  144.5310  124.1750 H     9407  MOL9407     0.2052
  41222  O        176.0330   18.7950  276.0050 O.3   9408  MOL9408    -0.4105
  41223  H        176.2070   17.9820  276.5240 H     9408  MOL9408     0.2052
  41224  H        175.0510   18.8900  275.8980 H     9408  MOL9408     0.2052
  41225  O        142.8290   39.4030   22.0150 O.3   9409  MOL9409    -0.4105
  41226  H        142.6510   40.2910   21.6390 H     9409  MOL9409     0.2052
  41227  H        143.6720   39.0620   21.6200 H     9409  MOL9409     0.2052
  41228  O         71.7220   27.3290  142.6470 O.3   9410  MOL9410    -0.4105
  41229  H         71.3190   28.2220  142.6400 H     9410  MOL9410     0.2052
  41230  H         72.7090   27.4330  142.6380 H     9410  MOL9410     0.2052
  41231  O        104.6560   19.7950  145.0760 O.3   9411  MOL9411    -0.4105
  41232  H        105.4260   19.9220  145.6690 H     9411  MOL9411     0.2052
  41233  H        104.7850   18.9490  144.5750 H     9411  MOL9411     0.2052
  41234  O        147.8310  158.4020  192.1280 O.3   9412  MOL9412    -0.4105
  41235  H        148.1340  158.6520  193.0260 H     9412  MOL9412     0.2052
  41236  H        147.2020  157.6400  192.2140 H     9412  MOL9412     0.2052
  41237  O        184.2820   34.6630  201.8930 O.3   9413  MOL9413    -0.4105
  41238  H        183.9970   34.9840  202.7740 H     9413  MOL9413     0.2052
  41239  H        184.9900   33.9800  202.0260 H     9413  MOL9413     0.2052
  41240  O        111.9420  146.0270  199.6710 O.3   9414  MOL9414    -0.4105
  41241  H        111.9320  145.2370  199.0900 H     9414  MOL9414     0.2052
  41242  H        112.8730  146.3690  199.7130 H     9414  MOL9414     0.2052
  41243  O        163.3230   80.6650   44.4240 O.3   9415  MOL9415    -0.4105
  41244  H        163.5520   80.3100   43.5390 H     9415  MOL9415     0.2052
  41245  H        164.0710   80.4630   45.0430 H     9415  MOL9415     0.2052
  41246  O        146.3300   18.9830  280.1370 O.3   9416  MOL9416    -0.4105
  41247  H        147.2020   19.4090  280.0050 H     9416  MOL9416     0.2052
  41248  H        146.4770   18.0110  280.2720 H     9416  MOL9416     0.2052
  41249  O        135.5770  174.1350  200.9720 O.3   9417  MOL9417    -0.4105
  41250  H        135.3470  173.5940  200.1880 H     9417  MOL9417     0.2052
  41251  H        136.3560  174.7040  200.7390 H     9417  MOL9417     0.2052
  41252  O        124.6350   15.9970  107.2740 O.3   9418  MOL9418    -0.4105
  41253  H        124.4080   15.7030  106.3670 H     9418  MOL9418     0.2052
  41254  H        123.9070   16.5870  107.6000 H     9418  MOL9418     0.2052
  41255  O         96.0870   26.1290   45.9630 O.3   9419  MOL9419    -0.4105
  41256  H         96.1130   25.8540   46.9030 H     9419  MOL9419     0.2052
  41257  H         96.3240   25.3450   45.4030 H     9419  MOL9419     0.2052
  41258  O        187.1040  198.4630  150.1180 O.3   9420  MOL9420    -0.4105
  41259  H        186.9040  199.4180  150.0360 H     9420  MOL9420     0.2052
  41260  H        187.3170  198.1120  149.2150 H     9420  MOL9420     0.2052
  41261  O          6.3390  153.8670  193.4420 O.3   9421  MOL9421    -0.4105
  41262  H          7.1620  154.3850  193.3190 H     9421  MOL9421     0.2052
  41263  H          6.4250  153.3400  194.2780 H     9421  MOL9421     0.2052
  41264  O        124.3490   29.5130  276.2530 O.3   9422  MOL9422    -0.4105
  41265  H        124.8280   29.8200  277.0500 H     9422  MOL9422     0.2052
  41266  H        124.4850   28.5340  276.1660 H     9422  MOL9422     0.2052
  41267  O         71.1830   45.8530  173.0710 O.3   9423  MOL9423    -0.4105
  41268  H         70.3850   45.8810  172.5030 H     9423  MOL9423     0.2052
  41269  H         70.9120   45.5370  173.9720 H     9423  MOL9423     0.2052
  41270  O        181.3170  104.5330  270.5670 O.3   9424  MOL9424    -0.4105
  41271  H        180.8710  104.3870  271.4280 H     9424  MOL9424     0.2052
  41272  H        180.9900  103.8470  269.9280 H     9424  MOL9424     0.2052
  41273  O        113.9460  147.6010  268.4840 O.3   9425  MOL9425    -0.4105
  41274  H        114.7600  148.1470  268.4870 H     9425  MOL9425     0.2052
  41275  H        114.1830  146.6920  268.1650 H     9425  MOL9425     0.2052
  41276  O        166.3930   74.8750   37.8060 O.3   9426  MOL9426    -0.4105
  41277  H        166.1310   75.8150   37.8990 H     9426  MOL9426     0.2052
  41278  H        165.5720   74.3370   37.6600 H     9426  MOL9426     0.2052
  41279  O         69.0340   61.6290    5.2870 O.3   9427  MOL9427    -0.4105
  41280  H         68.9780   60.7710    5.7570 H     9427  MOL9427     0.2052
  41281  H         69.3500   62.3160    5.9290 H     9427  MOL9427     0.2052
  41282  O         97.7880   23.9130  263.0840 O.3   9428  MOL9428    -0.4105
  41283  H         98.7560   24.0580  263.0490 H     9428  MOL9428     0.2052
  41284  H         97.3430   24.7990  263.1230 H     9428  MOL9428     0.2052
  41285  O        146.4660   28.9340   52.4570 O.3   9429  MOL9429    -0.4105
  41286  H        146.5160   29.9060   52.3470 H     9429  MOL9429     0.2052
  41287  H        145.5090   28.6750   52.5020 H     9429  MOL9429     0.2052
  41288  O          9.0870   53.4130  295.1520 O.3   9430  MOL9430    -0.4105
  41289  H          9.4650   52.5080  295.1520 H     9430  MOL9430     0.2052
  41290  H          8.1000   53.3360  295.2200 H     9430  MOL9430     0.2052
  41291  O         34.2180   32.2960   51.3040 O.3   9431  MOL9431    -0.4105
  41292  H         33.3000   32.3630   51.6380 H     9431  MOL9431     0.2052
  41293  H         34.1850   32.2450   50.3130 H     9431  MOL9431     0.2052
  41294  O        162.0590   27.3350  152.1240 O.3   9432  MOL9432    -0.4105
  41295  H        162.0520   28.3110  152.0320 H     9432  MOL9432     0.2052
  41296  H        162.9900   27.0490  152.3140 H     9432  MOL9432     0.2052
  41297  O        195.9460  116.3110  157.9470 O.3   9433  MOL9433    -0.4105
  41298  H        195.0960  115.8260  157.9990 H     9433  MOL9433     0.2052
  41299  H        195.7660  117.2710  158.1260 H     9433  MOL9433     0.2052
  41300  O        162.0830    3.5170   72.9940 O.3   9434  MOL9434    -0.4105
  41301  H        163.0430    3.4060   73.1600 H     9434  MOL9434     0.2052
  41302  H        161.9120    4.4730   72.7910 H     9434  MOL9434     0.2052
  41303  O        171.2760  119.7070  146.3360 O.3   9435  MOL9435    -0.4105
  41304  H        170.3080  119.7810  146.2070 H     9435  MOL9435     0.2052
  41305  H        171.7040  119.6300  145.4440 H     9435  MOL9435     0.2052
  41306  O        173.5870   95.0960   89.2260 O.3   9436  MOL9436    -0.4105
  41307  H        173.7400   94.7950   90.1460 H     9436  MOL9436     0.2052
  41308  H        174.3760   95.6230   88.9370 H     9436  MOL9436     0.2052
  41309  O         99.7370  120.2460  289.1070 O.3   9437  MOL9437    -0.4105
  41310  H         99.8700  120.7280  289.9500 H     9437  MOL9437     0.2052
  41311  H         99.3860  120.8870  288.4350 H     9437  MOL9437     0.2052
  41312  O          5.0610  184.5760   20.7450 O.3   9438  MOL9438    -0.4105
  41313  H          5.3660  185.5040   20.6650 H     9438  MOL9438     0.2052
  41314  H          4.1300  184.5830   21.0870 H     9438  MOL9438     0.2052
  41315  O         86.7320   68.4850  294.9590 O.3   9439  MOL9439    -0.4105
  41316  H         85.9460   68.9480  295.3190 H     9439  MOL9439     0.2052
  41317  H         87.2170   69.1140  294.3650 H     9439  MOL9439     0.2052
  41318  O         48.3640  153.7250  246.3600 O.3   9440  MOL9440    -0.4105
  41319  H         47.7300  154.4130  246.0670 H     9440  MOL9440     0.2052
  41320  H         47.9940  152.8380  246.1150 H     9440  MOL9440     0.2052
  41321  O         90.0520  113.4540   46.7410 O.3   9441  MOL9441    -0.4105
  41322  H         90.5770  113.7050   45.9520 H     9441  MOL9441     0.2052
  41323  H         89.6460  112.5650   46.5740 H     9441  MOL9441     0.2052
  41324  O         92.1090  148.1250   70.4510 O.3   9442  MOL9442    -0.4105
  41325  H         92.7880  148.8300   70.4850 H     9442  MOL9442     0.2052
  41326  H         92.1590  147.6040   71.2940 H     9442  MOL9442     0.2052
  41327  O        135.7490    7.6350  243.5010 O.3   9443  MOL9443    -0.4105
  41328  H        135.3870    7.5810  242.5920 H     9443  MOL9443     0.2052
  41329  H        136.6560    7.2330  243.4980 H     9443  MOL9443     0.2052
  41330  O        112.2840  153.4180  114.1880 O.3   9444  MOL9444    -0.4105
  41331  H        112.0430  152.7660  114.8780 H     9444  MOL9444     0.2052
  41332  H        113.0560  153.0590  113.6780 H     9444  MOL9444     0.2052
  41333  O         74.6190  112.9680   39.1760 O.3   9445  MOL9445    -0.4105
  41334  H         74.3650  112.3240   39.8700 H     9445  MOL9445     0.2052
  41335  H         74.2100  112.6790   38.3190 H     9445  MOL9445     0.2052
  41336  O         25.3180   41.0310  261.2390 O.3   9446  MOL9446    -0.4105
  41337  H         26.0360   41.5640  261.6390 H     9446  MOL9446     0.2052
  41338  H         25.1880   41.3360  260.3040 H     9446  MOL9446     0.2052
  41339  O         17.5920   58.6310  248.9450 O.3   9447  MOL9447    -0.4105
  41340  H         16.9620   59.3800  248.8960 H     9447  MOL9447     0.2052
  41341  H         17.0710   57.7930  249.0480 H     9447  MOL9447     0.2052
  41342  O         62.6280  167.9990  165.4940 O.3   9448  MOL9448    -0.4105
  41343  H         63.5450  168.3390  165.4300 H     9448  MOL9448     0.2052
  41344  H         62.6700  167.0310  165.7060 H     9448  MOL9448     0.2052
  41345  O         18.1590  124.3850  199.9420 O.3   9449  MOL9449    -0.4105
  41346  H         18.4000  123.4580  199.7330 H     9449  MOL9449     0.2052
  41347  H         18.8280  124.9830  199.5170 H     9449  MOL9449     0.2052
  41348  O         61.5730   94.1500  203.1130 O.3   9450  MOL9450    -0.4105
  41349  H         61.6450   94.7560  202.3470 H     9450  MOL9450     0.2052
  41350  H         60.6840   93.7120  203.0810 H     9450  MOL9450     0.2052
  41351  O        194.9990  176.3530  181.8430 O.3   9451  MOL9451    -0.4105
  41352  H        194.3630  176.6870  182.5100 H     9451  MOL9451     0.2052
  41353  H        195.3500  177.1290  181.3330 H     9451  MOL9451     0.2052
  41354  O         20.2600   11.8640   81.1260 O.3   9452  MOL9452    -0.4105
  41355  H         19.3320   11.9240   81.4350 H     9452  MOL9452     0.2052
  41356  H         20.8330   12.3610   81.7660 H     9452  MOL9452     0.2052
  41357  O         54.5660  103.4370  263.0600 O.3   9453  MOL9453    -0.4105
  41358  H         55.1370  104.2290  262.9790 H     9453  MOL9453     0.2052
  41359  H         55.1500  102.6410  263.1630 H     9453  MOL9453     0.2052
  41360  O        105.4790   23.5770   84.1460 O.3   9454  MOL9454    -0.4105
  41361  H        105.7900   23.1060   84.9480 H     9454  MOL9454     0.2052
  41362  H        104.5550   23.8980   84.3140 H     9454  MOL9454     0.2052
  41363  O        163.2740  105.7250  153.7000 O.3   9455  MOL9455    -0.4105
  41364  H        163.7780  105.1490  154.3120 H     9455  MOL9455     0.2052
  41365  H        162.4140  105.2770  153.4880 H     9455  MOL9455     0.2052
  41366  O        148.0420   97.5380  290.6470 O.3   9456  MOL9456    -0.4105
  41367  H        148.8100   98.1470  290.6660 H     9456  MOL9456     0.2052
  41368  H        148.3850   96.6080  290.6120 H     9456  MOL9456     0.2052
  41369  O        106.0340   38.4890  122.9650 O.3   9457  MOL9457    -0.4105
  41370  H        105.1590   38.0770  123.1260 H     9457  MOL9457     0.2052
  41371  H        106.7090   37.7650  122.8900 H     9457  MOL9457     0.2052
  41372  O        168.5630  187.9530  172.8610 O.3   9458  MOL9458    -0.4105
  41373  H        169.2200  188.6700  172.9830 H     9458  MOL9458     0.2052
  41374  H        167.6670  188.3680  172.7570 H     9458  MOL9458     0.2052
  41375  O        107.0360   33.0580  106.0780 O.3   9459  MOL9459    -0.4105
  41376  H        106.2240   32.5200  106.1850 H     9459  MOL9459     0.2052
  41377  H        107.6660   32.5570  105.4980 H     9459  MOL9459     0.2052
  41378  O         56.2520   81.9560  262.3580 O.3   9460  MOL9460    -0.4105
  41379  H         55.8300   81.0730  262.4130 H     9460  MOL9460     0.2052
  41380  H         57.2360   81.8310  262.3750 H     9460  MOL9460     0.2052
  41381  O          6.3760   28.6290  118.4730 O.3   9461  MOL9461    -0.4105
  41382  H          6.7080   29.5190  118.7150 H     9461  MOL9461     0.2052
  41383  H          5.3850   28.6440  118.5240 H     9461  MOL9461     0.2052
  41384  O        188.3420   90.9590  245.3660 O.3   9462  MOL9462    -0.4105
  41385  H        188.1280   90.8030  244.4230 H     9462  MOL9462     0.2052
  41386  H        187.6820   90.4660  245.9200 H     9462  MOL9462     0.2052
  41387  O        172.4440   91.4570   70.1850 O.3   9463  MOL9463    -0.4105
  41388  H        173.1070   92.1570   70.0100 H     9463  MOL9463     0.2052
  41389  H        172.8880   90.5760   70.0770 H     9463  MOL9463     0.2052
  41390  O        123.2050  186.5780  104.5160 O.3   9464  MOL9464    -0.4105
  41391  H        123.0380  187.4380  104.9570 H     9464  MOL9464     0.2052
  41392  H        122.7220  186.5750  103.6500 H     9464  MOL9464     0.2052
  41393  O         72.2790  101.8990   16.0690 O.3   9465  MOL9465    -0.4105
  41394  H         72.8010  102.3540   16.7620 H     9465  MOL9465     0.2052
  41395  H         71.8390  102.5890   15.5080 H     9465  MOL9465     0.2052
  41396  O         64.8060   79.2700   23.7260 O.3   9466  MOL9466    -0.4105
  41397  H         65.6280   79.8010   23.7800 H     9466  MOL9466     0.2052
  41398  H         65.0390   78.3200   23.8910 H     9466  MOL9466     0.2052
  41399  O         51.8150  167.7910  156.5780 O.3   9467  MOL9467    -0.4105
  41400  H         51.7120  167.0940  155.8970 H     9467  MOL9467     0.2052
  41401  H         51.9950  168.6510  156.1170 H     9467  MOL9467     0.2052
  41402  O         58.4820  173.6100   46.8440 O.3   9468  MOL9468    -0.4105
  41403  H         58.1080  172.8140   46.4120 H     9468  MOL9468     0.2052
  41404  H         59.4670  173.5010   46.8960 H     9468  MOL9468     0.2052
  41405  O        148.2010   63.4730  248.7460 O.3   9469  MOL9469    -0.4105
  41406  H        148.0750   62.8390  249.4820 H     9469  MOL9469     0.2052
  41407  H        147.4660   64.1380  248.7790 H     9469  MOL9469     0.2052
  41408  O         93.4360  188.5300  201.1500 O.3   9470  MOL9470    -0.4105
  41409  H         94.2250  188.7360  200.6060 H     9470  MOL9470     0.2052
  41410  H         92.6270  188.7700  200.6270 H     9470  MOL9470     0.2052
  41411  O        115.0110   52.7630  163.3120 O.3   9471  MOL9471    -0.4105
  41412  H        115.7680   52.2160  163.0150 H     9471  MOL9471     0.2052
  41413  H        114.3410   52.1640  163.7320 H     9471  MOL9471     0.2052
  41414  O         62.9670  183.2220  236.6350 O.3   9472  MOL9472    -0.4105
  41415  H         63.3940  182.4390  237.0410 H     9472  MOL9472     0.2052
  41416  H         63.4740  183.4620  235.8160 H     9472  MOL9472     0.2052
  41417  O        141.2900   60.8730  285.6390 O.3   9473  MOL9473    -0.4105
  41418  H        141.9870   61.1270  286.2780 H     9473  MOL9473     0.2052
  41419  H        140.9520   59.9740  285.8900 H     9473  MOL9473     0.2052
  41420  O        109.6550  150.5400  200.4050 O.3   9474  MOL9474    -0.4105
  41421  H        108.8200  150.1590  200.0620 H     9474  MOL9474     0.2052
  41422  H        110.4010  149.9400  200.1460 H     9474  MOL9474     0.2052
  41423  O        136.4600  125.9100  170.7500 O.3   9475  MOL9475    -0.4105
  41424  H        136.5530  124.9660  170.9940 H     9475  MOL9475     0.2052
  41425  H        136.0870  125.9590  169.8320 H     9475  MOL9475     0.2052
  41426  O        138.5740  193.8030  227.8620 O.3   9476  MOL9476    -0.4105
  41427  H        137.8710  194.3100  228.3190 H     9476  MOL9476     0.2052
  41428  H        139.2920  194.4360  227.6000 H     9476  MOL9476     0.2052
  41429  O        125.3860   68.6640  284.3550 O.3   9477  MOL9477    -0.4105
  41430  H        126.0000   68.6920  283.5910 H     9477  MOL9477     0.2052
  41431  H        125.7880   69.1880  285.0960 H     9477  MOL9477     0.2052
  41432  O         17.0370  193.7630  226.1350 O.3   9478  MOL9478    -0.4105
  41433  H         16.2360  193.3510  225.7480 H     9478  MOL9478     0.2052
  41434  H         17.8030  193.1480  225.9920 H     9478  MOL9478     0.2052
  41435  O        131.1400   30.4200  201.0980 O.3   9479  MOL9479    -0.4105
  41436  H        131.1990   31.3710  201.3290 H     9479  MOL9479     0.2052
  41437  H        131.0640   29.9010  201.9400 H     9479  MOL9479     0.2052
  41438  O          0.9850   80.1780  152.0050 O.3   9480  MOL9480    -0.4105
  41439  H          1.1560   81.1220  152.2040 H     9480  MOL9480     0.2052
  41440  H          0.0090   80.0600  151.8720 H     9480  MOL9480     0.2052
  41441  O        136.3040  160.2270  170.8470 O.3   9481  MOL9481    -0.4105
  41442  H        137.1790  160.4580  171.2230 H     9481  MOL9481     0.2052
  41443  H        135.7120  161.0190  170.9290 H     9481  MOL9481     0.2052
  41444  O         90.0080   74.6520  190.3910 O.3   9482  MOL9482    -0.4105
  41445  H         90.9300   74.3670  190.5620 H     9482  MOL9482     0.2052
  41446  H         90.0080   75.6330  190.2470 H     9482  MOL9482     0.2052
  41447  O        188.0620   49.7320   76.2790 O.3   9483  MOL9483    -0.4105
  41448  H        187.1810   49.3470   76.0880 H     9483  MOL9483     0.2052
  41449  H        188.0630   50.6740   75.9680 H     9483  MOL9483     0.2052
  41450  O        108.1530  132.4350  197.7160 O.3   9484  MOL9484    -0.4105
  41451  H        108.4550  132.9840  196.9620 H     9484  MOL9484     0.2052
  41452  H        108.5010  132.8410  198.5530 H     9484  MOL9484     0.2052
  41453  O        103.5560  159.5200  179.9180 O.3   9485  MOL9485    -0.4105
  41454  H        102.6100  159.6360  179.6900 H     9485  MOL9485     0.2052
  41455  H        104.0680  159.4170  179.0740 H     9485  MOL9485     0.2052
  41456  O        195.6700   69.5090  285.7950 O.3   9486  MOL9486    -0.4105
  41457  H        196.0940   70.3920  285.8190 H     9486  MOL9486     0.2052
  41458  H        196.2830   68.8580  286.2240 H     9486  MOL9486     0.2052
  41459  O        185.0350  114.4210  173.5810 O.3   9487  MOL9487    -0.4105
  41460  H        185.8680  114.7020  173.1480 H     9487  MOL9487     0.2052
  41461  H        184.8960  113.4570  173.3920 H     9487  MOL9487     0.2052
  41462  O        126.6980  115.2550   58.4460 O.3   9488  MOL9488    -0.4105
  41463  H        126.1860  114.4270   58.3310 H     9488  MOL9488     0.2052
  41464  H        126.1850  115.8560   59.0460 H     9488  MOL9488     0.2052
  41465  O         37.4920  162.2630  282.8490 O.3   9489  MOL9489    -0.4105
  41466  H         37.5260  161.2980  283.0150 H     9489  MOL9489     0.2052
  41467  H         37.9370  162.4450  281.9810 H     9489  MOL9489     0.2052
  41468  O        169.0340  105.0270  294.5790 O.3   9490  MOL9490    -0.4105
  41469  H        168.2660  105.3370  294.0560 H     9490  MOL9490     0.2052
  41470  H        169.5760  104.4240  294.0070 H     9490  MOL9490     0.2052
  41471  O        186.1910  134.9960   73.8320 O.3   9491  MOL9491    -0.4105
  41472  H        186.6750  134.3920   73.2310 H     9491  MOL9491     0.2052
  41473  H        186.6510  135.8750   73.8260 H     9491  MOL9491     0.2052
  41474  O         74.1300  158.4770  114.5330 O.3   9492  MOL9492    -0.4105
  41475  H         73.4400  158.4770  115.2290 H     9492  MOL9492     0.2052
  41476  H         73.8860  157.7960  113.8540 H     9492  MOL9492     0.2052
  41477  O          8.0340  194.4180  298.8000 O.3   9493  MOL9493    -0.4105
  41478  H          7.2580  193.8800  298.5350 H     9493  MOL9493     0.2052
  41479  H          8.8260  194.0840  298.3050 H     9493  MOL9493     0.2052
  41480  O         11.3100  155.6890   48.7170 O.3   9494  MOL9494    -0.4105
  41481  H         11.2750  156.6650   48.6450 H     9494  MOL9494     0.2052
  41482  H         12.1240  155.3720   48.2470 H     9494  MOL9494     0.2052
  41483  O         66.6690  149.1810   51.3890 O.3   9495  MOL9495    -0.4105
  41484  H         67.5770  149.4100   51.6770 H     9495  MOL9495     0.2052
  41485  H         66.6360  149.2300   50.3980 H     9495  MOL9495     0.2052
  41486  O        153.7750  172.4030   28.3830 O.3   9496  MOL9496    -0.4105
  41487  H        154.6520  172.8140   28.5300 H     9496  MOL9496     0.2052
  41488  H        153.7910  171.4900   28.7720 H     9496  MOL9496     0.2052
  41489  O         49.9920  153.1160  205.4210 O.3   9497  MOL9497    -0.4105
  41490  H         49.1970  152.5430  205.4200 H     9497  MOL9497     0.2052
  41491  H         50.7950  152.5340  205.3980 H     9497  MOL9497     0.2052
  41492  O        180.9570  191.2490   60.0100 O.3   9498  MOL9498    -0.4105
  41493  H        181.3800  191.6090   59.2030 H     9498  MOL9498     0.2052
  41494  H        180.4870  191.9900   60.4720 H     9498  MOL9498     0.2052
  41495  O         21.9990  140.8080   53.9130 O.3   9499  MOL9499    -0.4105
  41496  H         21.9500  141.1770   54.8200 H     9499  MOL9499     0.2052
  41497  H         21.6490  141.4890   53.2820 H     9499  MOL9499     0.2052
  41498  O         31.8260  192.7770   69.8660 O.3   9500  MOL9500    -0.4105
  41499  H         30.9960  193.2980   69.8710 H     9500  MOL9500     0.2052
  41500  H         31.6010  191.8320   70.0640 H     9500  MOL9500     0.2052
  41501  O         27.3530  149.9800  137.9070 O.3   9501  MOL9501    -0.4105
  41502  H         27.3110  150.4330  138.7760 H     9501  MOL9501     0.2052
  41503  H         28.2870  149.6810  137.7580 H     9501  MOL9501     0.2052
  41504  O        195.3410  171.6250  231.9500 O.3   9502  MOL9502    -0.4105
  41505  H        194.5910  171.0880  232.2810 H     9502  MOL9502     0.2052
  41506  H        194.9760  172.3450  231.3730 H     9502  MOL9502     0.2052
  41507  O         98.8680  158.2600  253.9240 O.3   9503  MOL9503    -0.4105
  41508  H         99.0670  159.1730  253.6300 H     9503  MOL9503     0.2052
  41509  H         98.1080  157.9190  253.3840 H     9503  MOL9503     0.2052
  41510  O         49.3770    6.0360  186.8050 O.3   9504  MOL9504    -0.4105
  41511  H         48.8140    5.2340  186.7870 H     9504  MOL9504     0.2052
  41512  H         50.3260    5.7480  186.8380 H     9504  MOL9504     0.2052
  41513  O        123.0730    7.7890  149.2620 O.3   9505  MOL9505    -0.4105
  41514  H        123.3100    7.6020  150.1940 H     9505  MOL9505     0.2052
  41515  H        122.1750    7.4040  149.0870 H     9505  MOL9505     0.2052
  41516  O        191.5160   31.6620  260.2080 O.3   9506  MOL9506    -0.4105
  41517  H        191.0840   30.9730  259.6610 H     9506  MOL9506     0.2052
  41518  H        192.0070   31.2110  260.9430 H     9506  MOL9506     0.2052
  41519  O        188.9100   61.4440  176.5420 O.3   9507  MOL9507    -0.4105
  41520  H        189.3130   60.9250  177.2690 H     9507  MOL9507     0.2052
  41521  H        187.9290   61.2910  176.5590 H     9507  MOL9507     0.2052
  41522  O        139.6240   16.4080  182.0040 O.3   9508  MOL9508    -0.4105
  41523  H        139.9630   17.3200  182.1210 H     9508  MOL9508     0.2052
  41524  H        138.6620   16.4630  181.7650 H     9508  MOL9508     0.2052
  41525  O        190.7540  194.2070  199.1220 O.3   9509  MOL9509    -0.4105
  41526  H        190.3970  193.2950  199.1640 H     9509  MOL9509     0.2052
  41527  H        190.0670  194.8270  199.4790 H     9509  MOL9509     0.2052
  41528  O         51.7710   69.5470   55.9800 O.3   9510  MOL9510    -0.4105
  41529  H         51.5700   70.3460   55.4490 H     9510  MOL9510     0.2052
  41530  H         50.9480   69.2840   56.4680 H     9510  MOL9510     0.2052
  41531  O         19.7150   95.9920  106.0390 O.3   9511  MOL9511    -0.4105
  41532  H         19.7200   96.9700  106.1140 H     9511  MOL9511     0.2052
  41533  H         18.9200   95.6480  106.5240 H     9511  MOL9511     0.2052
  41534  O         74.6640  130.3180  228.8000 O.3   9512  MOL9512    -0.4105
  41535  H         74.7970  129.4250  229.1820 H     9512  MOL9512     0.2052
  41536  H         74.7740  130.9860  229.5250 H     9512  MOL9512     0.2052
  41537  O        148.8740   93.1950  232.4260 O.3   9513  MOL9513    -0.4105
  41538  H        148.7870   93.2840  231.4540 H     9513  MOL9513     0.2052
  41539  H        148.0640   93.5850  232.8470 H     9513  MOL9513     0.2052
  41540  O        176.2230  102.4090  132.7530 O.3   9514  MOL9514    -0.4105
  41541  H        175.2590  102.3230  132.5970 H     9514  MOL9514     0.2052
  41542  H        176.5250  101.6200  133.2730 H     9514  MOL9514     0.2052
  41543  O         24.5400  111.0780  293.4400 O.3   9515  MOL9515    -0.4105
  41544  H         23.6480  111.4840  293.4410 H     9515  MOL9515     0.2052
  41545  H         25.2000  111.7760  293.6870 H     9515  MOL9515     0.2052
  41546  O         75.3300   65.6300  278.8020 O.3   9516  MOL9516    -0.4105
  41547  H         75.6730   66.4640  278.4180 H     9516  MOL9516     0.2052
  41548  H         75.9410   65.3510  279.5340 H     9516  MOL9516     0.2052
  41549  O         74.9650   91.5830  281.9420 O.3   9517  MOL9517    -0.4105
  41550  H         75.3110   90.7720  282.3700 H     9517  MOL9517     0.2052
  41551  H         74.1730   91.3350  281.3990 H     9517  MOL9517     0.2052
  41552  O        185.5260  105.2810  227.9030 O.3   9518  MOL9518    -0.4105
  41553  H        186.2450  104.7390  228.2900 H     9518  MOL9518     0.2052
  41554  H        185.9000  106.1670  227.6610 H     9518  MOL9518     0.2052
  41555  O        181.3260  128.7180  244.4090 O.3   9519  MOL9519    -0.4105
  41556  H        180.5340  129.2550  244.6210 H     9519  MOL9519     0.2052
  41557  H        181.1280  128.1790  243.6000 H     9519  MOL9519     0.2052
  41558  O          7.0990    3.4270  207.4280 O.3   9520  MOL9520    -0.4105
  41559  H          7.7470    3.3100  206.7020 H     9520  MOL9520     0.2052
  41560  H          6.6530    2.5550  207.5890 H     9520  MOL9520     0.2052
  41561  O        190.0270  129.6650   47.5820 O.3   9521  MOL9521    -0.4105
  41562  H        189.6710  130.4540   48.0430 H     9521  MOL9521     0.2052
  41563  H        190.8950  129.9120   47.1710 H     9521  MOL9521     0.2052
  41564  O          5.8710  158.6360  285.4220 O.3   9522  MOL9522    -0.4105
  41565  H          5.6390  159.5860  285.3510 H     9522  MOL9522     0.2052
  41566  H          6.8170  158.5690  285.7140 H     9522  MOL9522     0.2052
  41567  O         65.6030  140.8360   57.5780 O.3   9523  MOL9523    -0.4105
  41568  H         64.9290  140.8540   58.2890 H     9523  MOL9523     0.2052
  41569  H         65.8210  139.8880   57.3810 H     9523  MOL9523     0.2052
  41570  O        155.0560  137.5870    4.9500 O.3   9524  MOL9524    -0.4105
  41571  H        154.3400  138.2560    4.9600 H     9524  MOL9524     0.2052
  41572  H        155.9260  138.0630    4.9520 H     9524  MOL9524     0.2052
  41573  O        165.0380   28.9520  112.0400 O.3   9525  MOL9525    -0.4105
  41574  H        164.7860   28.7510  111.1150 H     9525  MOL9525     0.2052
  41575  H        164.8120   29.9000  112.2250 H     9525  MOL9525     0.2052
  41576  O         14.4800  151.6180  289.1190 O.3   9526  MOL9526    -0.4105
  41577  H         14.0280  152.4850  289.1800 H     9526  MOL9526     0.2052
  41578  H         15.4590  151.7770  289.1190 H     9526  MOL9526     0.2052
  41579  O         18.5910  196.9470  236.6830 O.3   9527  MOL9527    -0.4105
  41580  H         18.0830  196.1350  236.8910 H     9527  MOL9527     0.2052
  41581  H         19.1710  196.7580  235.9000 H     9527  MOL9527     0.2052
  41582  O         81.5320   29.9880  166.9170 O.3   9528  MOL9528    -0.4105
  41583  H         82.1570   29.2820  166.6490 H     9528  MOL9528     0.2052
  41584  H         80.6100   29.6300  166.8470 H     9528  MOL9528     0.2052
  41585  O         10.3350   26.7950   83.2590 O.3   9529  MOL9529    -0.4105
  41586  H         10.9780   27.1970   82.6370 H     9529  MOL9529     0.2052
  41587  H         10.6040   27.0380   84.1830 H     9529  MOL9529     0.2052
  41588  O        160.5130  105.8490  251.1610 O.3   9530  MOL9530    -0.4105
  41589  H        160.1300  104.9870  251.4250 H     9530  MOL9530     0.2052
  41590  H        161.4940  105.8110  251.3050 H     9530  MOL9530     0.2052
  41591  O         22.0690  120.8230  292.5660 O.3   9531  MOL9531    -0.4105
  41592  H         23.0440  120.8700  292.6530 H     9531  MOL9531     0.2052
  41593  H         21.8100  121.2880  291.7290 H     9531  MOL9531     0.2052
  41594  O         20.3420  199.1430  213.8200 O.3   9532  MOL9532    -0.4105
  41595  H         21.2330  199.4570  213.5600 H     9532  MOL9532     0.2052
  41596  H         20.2070  199.3540  214.7810 H     9532  MOL9532     0.2052
  41597  O        175.4800  111.6310    0.6400 O.3   9533  MOL9533    -0.4105
  41598  H        175.4150  110.7230    1.0020 H     9533  MOL9533     0.2052
  41599  H        175.3130  112.2720    1.3800 H     9533  MOL9533     0.2052
  41600  O         74.1000  172.1260   86.3740 O.3   9534  MOL9534    -0.4105
  41601  H         74.3790  171.5880   87.1430 H     9534  MOL9534     0.2052
  41602  H         74.5080  171.7360   85.5580 H     9534  MOL9534     0.2052
  41603  O        124.6880  104.4830  196.8900 O.3   9535  MOL9535    -0.4105
  41604  H        125.5890  104.4170  197.2690 H     9535  MOL9535     0.2052
  41605  H        124.0490  104.0890  197.5380 H     9535  MOL9535     0.2052
  41606  O         45.7560  100.4520  294.0890 O.3   9536  MOL9536    -0.4105
  41607  H         45.5640   99.5690  293.7110 H     9536  MOL9536     0.2052
  41608  H         46.5300  100.3650  294.7040 H     9536  MOL9536     0.2052
  41609  O         59.6260   18.3930  276.9320 O.3   9537  MOL9537    -0.4105
  41610  H         58.7610   18.8520  276.9550 H     9537  MOL9537     0.2052
  41611  H         59.4580   17.4150  276.9320 H     9537  MOL9537     0.2052
  41612  O        185.5480  123.3610  252.6960 O.3   9538  MOL9538    -0.4105
  41613  H        185.7850  123.9250  251.9300 H     9538  MOL9538     0.2052
  41614  H        184.9350  122.6480  252.3780 H     9538  MOL9538     0.2052
  41615  O         55.8050  198.6220  126.9140 O.3   9539  MOL9539    -0.4105
  41616  H         55.8250  197.6510  126.7780 H     9539  MOL9539     0.2052
  41617  H         54.9840  198.8470  127.4240 H     9539  MOL9539     0.2052
  41618  O        156.7300   21.1220   70.0710 O.3   9540  MOL9540    -0.4105
  41619  H        156.1180   21.8870   70.0910 H     9540  MOL9540     0.2052
  41620  H        157.6600   21.4670   70.1110 H     9540  MOL9540     0.2052
  41621  O        105.8930   56.5260   12.3390 O.3   9541  MOL9541    -0.4105
  41622  H        106.8460   56.7230   12.2200 H     9541  MOL9541     0.2052
  41623  H        105.8120   55.6300   12.7580 H     9541  MOL9541     0.2052
  41624  O        148.3160  119.9160  170.1410 O.3   9542  MOL9542    -0.4105
  41625  H        149.0740  120.3680  170.5680 H     9542  MOL9542     0.2052
  41626  H        147.5300  119.9960  170.7410 H     9542  MOL9542     0.2052
  41627  O        115.6580  157.0210  161.9880 O.3   9543  MOL9543    -0.4105
  41628  H        115.9650  156.7610  161.0940 H     9543  MOL9543     0.2052
  41629  H        115.8410  156.2700  162.6100 H     9543  MOL9543     0.2052
  41630  O        140.0530   60.7140  174.9630 O.3   9544  MOL9544    -0.4105
  41631  H        140.0010   61.6920  174.9990 H     9544  MOL9544     0.2052
  41632  H        141.0110   60.4540  174.9610 H     9544  MOL9544     0.2052
  41633  O        137.7440   39.1600   82.7580 O.3   9545  MOL9545    -0.4105
  41634  H        137.4610   38.6580   83.5500 H     9545  MOL9545     0.2052
  41635  H        138.2240   39.9740   83.0620 H     9545  MOL9545     0.2052
  41636  O         25.3370   58.1010   53.8070 O.3   9546  MOL9546    -0.4105
  41637  H         25.5190   58.6680   54.5860 H     9546  MOL9546     0.2052
  41638  H         24.6450   57.4370   54.0610 H     9546  MOL9546     0.2052
  41639  O        101.4320    8.3400  294.7500 O.3   9547  MOL9547    -0.4105
  41640  H        102.0110    9.1050  294.5470 H     9547  MOL9547     0.2052
  41641  H        100.7510    8.6320  295.4090 H     9547  MOL9547     0.2052
  41642  O         88.2080   33.4710  246.8550 O.3   9548  MOL9548    -0.4105
  41643  H         87.5920   32.7170  246.7470 H     9548  MOL9548     0.2052
  41644  H         88.9380   33.3730  246.1890 H     9548  MOL9548     0.2052
  41645  O        168.1250   43.9770   93.0540 O.3   9549  MOL9549    -0.4105
  41646  H        168.2780   43.0760   92.6990 H     9549  MOL9549     0.2052
  41647  H        168.1350   43.9260   94.0450 H     9549  MOL9549     0.2052
  41648  O         93.7090   25.9190  138.3510 O.3   9550  MOL9550    -0.4105
  41649  H         94.5290   25.7730  137.8350 H     9550  MOL9550     0.2052
  41650  H         93.9100   26.5670  139.0750 H     9550  MOL9550     0.2052
  41651  O         76.8150   13.4300  212.1870 O.3   9551  MOL9551    -0.4105
  41652  H         77.1990   12.5610  212.4250 H     9551  MOL9551     0.2052
  41653  H         77.5020   13.9490  211.6930 H     9551  MOL9551     0.2052
  41654  O         48.1090  112.2170  282.1850 O.3   9552  MOL9552    -0.4105
  41655  H         47.6350  111.3590  282.1910 H     9552  MOL9552     0.2052
  41656  H         49.0840  112.0340  282.1900 H     9552  MOL9552     0.2052
  41657  O        194.5770  157.9920  178.8520 O.3   9553  MOL9553    -0.4105
  41658  H        194.4440  157.0220  178.8060 H     9553  MOL9553     0.2052
  41659  H        195.5520  158.1730  178.8230 H     9553  MOL9553     0.2052
  41660  O         37.7830  152.1120   61.3720 O.3   9554  MOL9554    -0.4105
  41661  H         37.4830  151.8570   62.2690 H     9554  MOL9554     0.2052
  41662  H         37.8490  151.2890   60.8210 H     9554  MOL9554     0.2052
  41663  O        150.7030   44.4980  128.0790 O.3   9555  MOL9555    -0.4105
  41664  H        149.7790   44.2050  127.9350 H     9555  MOL9555     0.2052
  41665  H        151.2460   43.7040  128.3230 H     9555  MOL9555     0.2052
  41666  O        173.4090   57.8650  140.5160 O.3   9556  MOL9556    -0.4105
  41667  H        174.1700   58.4280  140.2640 H     9556  MOL9556     0.2052
  41668  H        172.5750   58.3310  140.2480 H     9556  MOL9556     0.2052
  41669  O         87.3250  156.5240  267.7770 O.3   9557  MOL9557    -0.4105
  41670  H         87.0550  157.4660  267.7920 H     9557  MOL9557     0.2052
  41671  H         86.6200  156.0060  267.3080 H     9557  MOL9557     0.2052
  41672  O         62.6250  186.4160  159.1270 O.3   9558  MOL9558    -0.4105
  41673  H         62.9510  185.5270  158.8750 H     9558  MOL9558     0.2052
  41674  H         63.3190  187.0820  158.8850 H     9558  MOL9558     0.2052
  41675  O        165.1380  174.7040  223.1510 O.3   9559  MOL9559    -0.4105
  41676  H        165.8150  174.4650  223.8180 H     9559  MOL9559     0.2052
  41677  H        164.5720  175.4270  223.5280 H     9559  MOL9559     0.2052
  41678  O        135.7580   96.3550   53.3880 O.3   9560  MOL9560    -0.4105
  41679  H        135.6940   96.1510   54.3450 H     9560  MOL9560     0.2052
  41680  H        135.4880   97.3000   53.2540 H     9560  MOL9560     0.2052
  41681  O        111.2920   37.3140   27.0870 O.3   9561  MOL9561    -0.4105
  41682  H        111.6180   38.2120   26.8670 H     9561  MOL9561     0.2052
  41683  H        110.4170   37.4050   27.5480 H     9561  MOL9561     0.2052
  41684  O         46.7280  157.7770   85.6680 O.3   9562  MOL9562    -0.4105
  41685  H         47.0360  156.8470   85.6550 H     9562  MOL9562     0.2052
  41686  H         45.8220  157.7980   86.0710 H     9562  MOL9562     0.2052
  41687  O        130.3490  164.4940  259.5260 O.3   9563  MOL9563    -0.4105
  41688  H        130.9140  164.7480  260.2850 H     9563  MOL9563     0.2052
  41689  H        129.9240  163.6210  259.7330 H     9563  MOL9563     0.2052
  41690  O        146.0090  187.1880   35.2280 O.3   9564  MOL9564    -0.4105
  41691  H        146.2890  186.8380   36.1000 H     9564  MOL9564     0.2052
  41692  H        146.1590  186.4800   34.5480 H     9564  MOL9564     0.2052
  41693  O        162.1180  118.8020   52.7560 O.3   9565  MOL9565    -0.4105
  41694  H        161.6570  118.7320   51.8940 H     9565  MOL9565     0.2052
  41695  H        162.9750  118.3070   52.6900 H     9565  MOL9565     0.2052
  41696  O        192.2180  130.4310  270.0780 O.3   9566  MOL9566    -0.4105
  41697  H        192.7830  131.0320  269.5490 H     9566  MOL9566     0.2052
  41698  H        192.5620  129.5070  269.9720 H     9566  MOL9566     0.2052
  41699  O        157.7000    3.5500   87.6690 O.3   9567  MOL9567    -0.4105
  41700  H        157.5170    2.7430   87.1440 H     9567  MOL9567     0.2052
  41701  H        158.5690    3.4280   88.1320 H     9567  MOL9567     0.2052
  41702  O         43.8970   90.0330  133.2280 O.3   9568  MOL9568    -0.4105
  41703  H         43.4150   89.8280  132.4000 H     9568  MOL9568     0.2052
  41704  H         43.4900   89.5040  133.9630 H     9568  MOL9568     0.2052
  41705  O         17.6250  116.4040  235.8230 O.3   9569  MOL9569    -0.4105
  41706  H         18.4570  116.8990  235.9780 H     9569  MOL9569     0.2052
  41707  H         17.0560  116.9370  235.2090 H     9569  MOL9569     0.2052
  41708  O        164.4760   68.8220  153.0370 O.3   9570  MOL9570    -0.4105
  41709  H        164.7860   69.5170  153.6540 H     9570  MOL9570     0.2052
  41710  H        163.5870   69.0910  152.6880 H     9570  MOL9570     0.2052
  41711  O        182.5530  174.2960  102.0310 O.3   9571  MOL9571    -0.4105
  41712  H        182.6200  173.3340  101.8540 H     9571  MOL9571     0.2052
  41713  H        181.7050  174.6260  101.6370 H     9571  MOL9571     0.2052
  41714  O         15.4430   39.9490   96.9610 O.3   9572  MOL9572    -0.4105
  41715  H         15.5060   40.9060   97.1620 H     9572  MOL9572     0.2052
  41716  H         14.6610   39.5800   97.4490 H     9572  MOL9572     0.2052
  41717  O        168.6190  147.3120  209.4120 O.3   9573  MOL9573    -0.4105
  41718  H        167.8060  147.8590  209.3980 H     9573  MOL9573     0.2052
  41719  H        169.3870  147.8920  209.1720 H     9573  MOL9573     0.2052
  41720  O         54.2870   12.4700  285.4440 O.3   9574  MOL9574    -0.4105
  41721  H         53.7170   13.2670  285.4130 H     9574  MOL9574     0.2052
  41722  H         55.1400   12.6810  284.9820 H     9574  MOL9574     0.2052
  41723  O         67.5570  124.2580  238.1980 O.3   9575  MOL9575    -0.4105
  41724  H         66.8970  123.5920  238.4830 H     9575  MOL9575     0.2052
  41725  H         68.2390  124.3440  238.9130 H     9575  MOL9575     0.2052
  41726  O          3.6810  151.7590  110.9960 O.3   9576  MOL9576    -0.4105
  41727  H          3.0240  152.4770  111.1110 H     9576  MOL9576     0.2052
  41728  H          4.5890  152.1560  111.0610 H     9576  MOL9576     0.2052
  41729  O        184.7540   21.6810  165.7040 O.3   9577  MOL9577    -0.4105
  41730  H        183.7850   21.7230  165.8460 H     9577  MOL9577     0.2052
  41731  H        184.9710   20.8020  165.2990 H     9577  MOL9577     0.2052
  41732  O        112.3600   83.9420   32.8020 O.3   9578  MOL9578    -0.4105
  41733  H        112.0930   84.6680   33.4040 H     9578  MOL9578     0.2052
  41734  H        111.9210   84.0890   31.9250 H     9578  MOL9578     0.2052
  41735  O        199.8400  110.7400    7.2370 O.3   9579  MOL9579    -0.4105
  41736  H        200.0400  111.6990    7.2140 H     9579  MOL9579     0.2052
  41737  H        198.8540  110.6290    7.2670 H     9579  MOL9579     0.2052
  41738  O         27.4650   99.9200   15.4100 O.3   9580  MOL9580    -0.4105
  41739  H         26.7650  100.6010   15.3310 H     9580  MOL9580     0.2052
  41740  H         28.3460  100.3780   15.3970 H     9580  MOL9580     0.2052
  41741  O        149.4400   21.8160  266.5490 O.3   9581  MOL9581    -0.4105
  41742  H        148.6890   22.0610  265.9700 H     9581  MOL9581     0.2052
  41743  H        150.2290   22.3530  266.2790 H     9581  MOL9581     0.2052
  41744  O          8.2820    7.7650   26.0750 O.3   9582  MOL9582    -0.4105
  41745  H          7.8760    8.3570   25.4080 H     9582  MOL9582     0.2052
  41746  H          8.2420    8.2180   26.9570 H     9582  MOL9582     0.2052
  41747  O        149.2110   36.9730  185.5300 O.3   9583  MOL9583    -0.4105
  41748  H        149.9810   37.5360  185.3060 H     9583  MOL9583     0.2052
  41749  H        149.5390   36.0510  185.6950 H     9583  MOL9583     0.2052
  41750  O         55.3000   38.9620   90.1070 O.3   9584  MOL9584    -0.4105
  41751  H         54.8500   39.6550   89.5800 H     9584  MOL9584     0.2052
  41752  H         55.7530   39.4010   90.8730 H     9584  MOL9584     0.2052
  41753  O         32.3460   15.7840  275.5090 O.3   9585  MOL9585    -0.4105
  41754  H         32.6310   15.3880  274.6600 H     9585  MOL9585     0.2052
  41755  H         31.6880   15.1720  275.9320 H     9585  MOL9585     0.2052
  41756  O        141.3000   38.5150   87.1090 O.3   9586  MOL9586    -0.4105
  41757  H        140.6650   38.3970   86.3720 H     9586  MOL9586     0.2052
  41758  H        141.6420   39.4460   87.0780 H     9586  MOL9586     0.2052
  41759  O        124.3800  185.2750  156.0070 O.3   9587  MOL9587    -0.4105
  41760  H        125.0010  185.2450  156.7640 H     9587  MOL9587     0.2052
  41761  H        124.3810  184.3840  155.5700 H     9587  MOL9587     0.2052
  41762  O        166.3190  177.6390  180.8870 O.3   9588  MOL9588    -0.4105
  41763  H        165.7360  176.8630  181.0240 H     9588  MOL9588     0.2052
  41764  H        165.7520  178.4130  180.6360 H     9588  MOL9588     0.2052
  41765  O         78.2340   60.4740  248.7470 O.3   9589  MOL9589    -0.4105
  41766  H         77.4910   61.0990  248.8840 H     9589  MOL9589     0.2052
  41767  H         78.9060   60.9160  248.1650 H     9589  MOL9589     0.2052
  41768  O         97.1550  103.9880   25.9420 O.3   9590  MOL9590    -0.4105
  41769  H         96.9610  104.6490   26.6390 H     9590  MOL9590     0.2052
  41770  H         96.5210  104.1310   25.1920 H     9590  MOL9590     0.2052
  41771  O        130.0730   38.6010   60.2890 O.3   9591  MOL9591    -0.4105
  41772  H        130.9640   38.3580   60.6180 H     9591  MOL9591     0.2052
  41773  H        130.0430   39.5860   60.1750 H     9591  MOL9591     0.2052
  41774  O         17.1990  148.5280  282.7030 O.3   9592  MOL9592    -0.4105
  41775  H         16.3580  149.0280  282.6350 H     9592  MOL9592     0.2052
  41776  H         17.9490  149.1780  282.6870 H     9592  MOL9592     0.2052
  41777  O        158.3750   66.2770   85.9220 O.3   9593  MOL9593    -0.4105
  41778  H        159.0770   66.9350   85.7410 H     9593  MOL9593     0.2052
  41779  H        157.4950   66.7260   85.8240 H     9593  MOL9593     0.2052
  41780  O        132.7300  167.3240   42.8100 O.3   9594  MOL9594    -0.4105
  41781  H        133.7090  167.3630   42.8070 H     9594  MOL9594     0.2052
  41782  H        132.4020  167.6930   41.9490 H     9594  MOL9594     0.2052
  41783  O          3.6340  179.0300   98.9210 O.3   9595  MOL9595    -0.4105
  41784  H          3.5630  180.0060   98.9860 H     9595  MOL9595     0.2052
  41785  H          4.5700  178.7730   99.1290 H     9595  MOL9595     0.2052
  41786  O         30.7700  153.0840  239.3780 O.3   9596  MOL9596    -0.4105
  41787  H         30.1130  153.7930  239.2160 H     9596  MOL9596     0.2052
  41788  H         30.2880  152.2880  239.7220 H     9596  MOL9596     0.2052
  41789  O        112.9760  181.7840   69.7700 O.3   9597  MOL9597    -0.4105
  41790  H        113.8960  181.5110   69.9670 H     9597  MOL9597     0.2052
  41791  H        112.9970  182.7060   69.4030 H     9597  MOL9597     0.2052
  41792  O        158.2800   57.0880  290.8410 O.3   9598  MOL9598    -0.4105
  41793  H        159.2140   56.7910  290.8480 H     9598  MOL9598     0.2052
  41794  H        158.2690   58.0780  290.9000 H     9598  MOL9598     0.2052
  41795  O         11.7670   54.8250  173.4910 O.3   9599  MOL9599    -0.4105
  41796  H         11.0990   55.5190  173.6700 H     9599  MOL9599     0.2052
  41797  H         11.3130   53.9430  173.5140 H     9599  MOL9599     0.2052
  41798  O          0.9780  187.4070   47.2930 O.3   9600  MOL9600    -0.4105
  41799  H          1.5280  188.1810   47.5360 H     9600  MOL9600     0.2052
  41800  H          1.3210  186.6160   47.7860 H     9600  MOL9600     0.2052
  41801  O        140.3030   13.3830  107.3680 O.3   9601  MOL9601    -0.4105
  41802  H        140.6250   14.3040  107.4660 H     9601  MOL9601     0.2052
  41803  H        141.0440   12.8340  107.0010 H     9601  MOL9601     0.2052
  41804  O        139.4960   81.5420   26.5910 O.3   9602  MOL9602    -0.4105
  41805  H        139.9620   82.3250   26.2300 H     9602  MOL9602     0.2052
  41806  H        138.5530   81.5740   26.2850 H     9602  MOL9602     0.2052
  41807  O        135.8280   57.6850  235.8640 O.3   9603  MOL9603    -0.4105
  41808  H        136.2480   56.8030  235.7810 H     9603  MOL9603     0.2052
  41809  H        136.0190   58.1990  235.0380 H     9603  MOL9603     0.2052
  41810  O         20.9280  151.0330   72.9970 O.3   9604  MOL9604    -0.4105
  41811  H         20.7410  151.7740   72.3820 H     9604  MOL9604     0.2052
  41812  H         20.0620  150.6850   73.3360 H     9604  MOL9604     0.2052
  41813  O         62.8450  131.4410   58.8210 O.3   9605  MOL9605    -0.4105
  41814  H         62.0140  131.1560   59.2560 H     9605  MOL9605     0.2052
  41815  H         63.4170  130.6410   58.6900 H     9605  MOL9605     0.2052
  41816  O         93.3710   57.1170  176.8700 O.3   9606  MOL9606    -0.4105
  41817  H         94.3010   57.4250  176.8850 H     9606  MOL9606     0.2052
  41818  H         93.3500   56.2150  176.4570 H     9606  MOL9606     0.2052
  41819  O         67.9390  178.5000  235.7270 O.3   9607  MOL9607    -0.4105
  41820  H         67.1360  178.2070  236.2060 H     9607  MOL9607     0.2052
  41821  H         67.9840  179.4910  235.7740 H     9607  MOL9607     0.2052
  41822  O         60.6200  129.0960  212.4800 O.3   9608  MOL9608    -0.4105
  41823  H         61.0430  128.7720  211.6570 H     9608  MOL9608     0.2052
  41824  H         60.3390  128.3080  213.0150 H     9608  MOL9608     0.2052
  41825  O        102.9710  196.5060  214.6590 O.3   9609  MOL9609    -0.4105
  41826  H        103.7400  197.1010  214.5330 H     9609  MOL9609     0.2052
  41827  H        102.5800  196.6880  215.5520 H     9609  MOL9609     0.2052
  41828  O         93.9250   50.8630  287.5550 O.3   9610  MOL9610    -0.4105
  41829  H         92.9680   51.0710  287.5130 H     9610  MOL9610     0.2052
  41830  H         94.0300   49.8770  287.5220 H     9610  MOL9610     0.2052
  41831  O        121.4190   64.5060  226.7990 O.3   9611  MOL9611    -0.4105
  41832  H        120.9760   63.7520  226.3580 H     9611  MOL9611     0.2052
  41833  H        121.7050   64.2120  227.7030 H     9611  MOL9611     0.2052
  41834  O        172.4080  131.0780   83.7170 O.3   9612  MOL9612    -0.4105
  41835  H        172.4350  130.9790   82.7420 H     9612  MOL9612     0.2052
  41836  H        173.0400  130.4230   84.1130 H     9612  MOL9612     0.2052
  41837  O        165.1660   91.7020   45.1490 O.3   9613  MOL9613    -0.4105
  41838  H        164.4600   91.4160   44.5330 H     9613  MOL9613     0.2052
  41839  H        165.0550   91.2050   46.0010 H     9613  MOL9613     0.2052
  41840  O        161.9470   40.4300  269.6830 O.3   9614  MOL9614    -0.4105
  41841  H        162.1050   41.1350  269.0210 H     9614  MOL9614     0.2052
  41842  H        161.1110   39.9550  269.4390 H     9614  MOL9614     0.2052
  41843  O        122.9260   61.6730  225.3850 O.3   9615  MOL9615    -0.4105
  41844  H        122.1390   61.0900  225.3530 H     9615  MOL9615     0.2052
  41845  H        123.2500   61.7060  226.3230 H     9615  MOL9615     0.2052
  41846  O        163.5990   39.2480  257.9970 O.3   9616  MOL9616    -0.4105
  41847  H        164.0420   39.9400  257.4630 H     9616  MOL9616     0.2052
  41848  H        162.7230   39.0440  257.5770 H     9616  MOL9616     0.2052
  41849  O        199.0510  179.9070  178.4070 O.3   9617  MOL9617    -0.4105
  41850  H        199.8690  180.2540  178.8200 H     9617  MOL9617     0.2052
  41851  H        198.3010  180.0410  179.0430 H     9617  MOL9617     0.2052
  41852  O        140.7780    3.0950  246.5600 O.3   9618  MOL9618    -0.4105
  41853  H        141.1610    2.2820  246.9520 H     9618  MOL9618     0.2052
  41854  H        140.8500    3.8250  247.2280 H     9618  MOL9618     0.2052
  41855  O        196.2160   38.5010    1.4840 O.3   9619  MOL9619    -0.4105
  41856  H        197.1080   38.8260    1.2420 H     9619  MOL9619     0.2052
  41857  H        195.5830   39.2630    1.4320 H     9619  MOL9619     0.2052
  41858  O        124.6030   55.3450  274.8140 O.3   9620  MOL9620    -0.4105
  41859  H        123.9870   54.7840  275.3300 H     9620  MOL9620     0.2052
  41860  H        125.3500   54.7750  274.4960 H     9620  MOL9620     0.2052
  41861  O        115.1150   40.9150  287.6350 O.3   9621  MOL9621    -0.4105
  41862  H        115.4250   40.0420  287.3150 H     9621  MOL9621     0.2052
  41863  H        114.8340   40.8170  288.5820 H     9621  MOL9621     0.2052
  41864  O        179.5670  100.5670  267.2480 O.3   9622  MOL9622    -0.4105
  41865  H        179.1420  100.4630  268.1250 H     9622  MOL9622     0.2052
  41866  H        179.2040   99.8710  266.6420 H     9622  MOL9622     0.2052
  41867  O         17.3860   76.3870  181.8170 O.3   9623  MOL9623    -0.4105
  41868  H         18.0620   76.2400  182.5110 H     9623  MOL9623     0.2052
  41869  H         16.7690   77.0980  182.1300 H     9623  MOL9623     0.2052
  41870  O          2.4300   66.7480    3.8670 O.3   9624  MOL9624    -0.4105
  41871  H          3.0030   66.4060    4.5850 H     9624  MOL9624     0.2052
  41872  H          2.1590   65.9830    3.2950 H     9624  MOL9624     0.2052
  41873  O         18.4240   82.0110  184.8850 O.3   9625  MOL9625    -0.4105
  41874  H         18.9650   82.0270  185.7020 H     9625  MOL9625     0.2052
  41875  H         17.6260   82.5830  185.0290 H     9625  MOL9625     0.2052
  41876  O         97.6560   32.5140   80.1140 O.3   9626  MOL9626    -0.4105
  41877  H         98.3840   32.3840   79.4710 H     9626  MOL9626     0.2052
  41878  H         96.8070   32.6030   79.6080 H     9626  MOL9626     0.2052
  41879  O         46.2400   11.0770  225.9850 O.3   9627  MOL9627    -0.4105
  41880  H         46.5760   10.8250  225.1000 H     9627  MOL9627     0.2052
  41881  H         45.5310   10.4320  226.2430 H     9627  MOL9627     0.2052
  41882  O         21.4220  117.2950  253.7110 O.3   9628  MOL9628    -0.4105
  41883  H         21.0770  117.5150  254.6020 H     9628  MOL9628     0.2052
  41884  H         20.9430  117.8540  253.0460 H     9628  MOL9628     0.2052
  41885  O        108.8480   16.8510  276.3380 O.3   9629  MOL9629    -0.4105
  41886  H        109.4070   16.0510  276.2500 H     9629  MOL9629     0.2052
  41887  H        108.3520   16.9790  275.4890 H     9629  MOL9629     0.2052
  41888  O         49.8100   71.6130  264.3100 O.3   9630  MOL9630    -0.4105
  41889  H         50.1000   70.6830  264.4230 H     9630  MOL9630     0.2052
  41890  H         48.8200   71.6390  264.3740 H     9630  MOL9630     0.2052
  41891  O        184.0490  131.2210  131.9650 O.3   9631  MOL9631    -0.4105
  41892  H        184.6450  130.4440  132.0120 H     9631  MOL9631     0.2052
  41893  H        183.1140  130.8920  131.9310 H     9631  MOL9631     0.2052
  41894  O        153.8780   90.1190  228.9610 O.3   9632  MOL9632    -0.4105
  41895  H        154.5540   90.8230  229.0440 H     9632  MOL9632     0.2052
  41896  H        152.9810   90.5430  228.9910 H     9632  MOL9632     0.2052
  41897  O        158.9880  115.1420  130.8130 O.3   9633  MOL9633    -0.4105
  41898  H        158.0460  114.8720  130.8040 H     9633  MOL9633     0.2052
  41899  H        159.0950  115.8710  131.4770 H     9633  MOL9633     0.2052
  41900  O         73.2290  155.4590  191.3620 O.3   9634  MOL9634    -0.4105
  41901  H         72.3150  155.4920  191.0110 H     9634  MOL9634     0.2052
  41902  H         73.5750  156.3870  191.4160 H     9634  MOL9634     0.2052
  41903  O         24.0480   83.2190  237.3880 O.3   9635  MOL9635    -0.4105
  41904  H         24.5510   82.3780  237.4120 H     9635  MOL9635     0.2052
  41905  H         23.0800   83.0030  237.3710 H     9635  MOL9635     0.2052
  41906  O         45.2400   38.4640   40.7290 O.3   9636  MOL9636    -0.4105
  41907  H         44.6980   37.7940   40.2610 H     9636  MOL9636     0.2052
  41908  H         44.6280   39.0590   41.2340 H     9636  MOL9636     0.2052
  41909  O         94.8610   64.4650  245.2920 O.3   9637  MOL9637    -0.4105
  41910  H         95.3590   63.6740  245.5850 H     9637  MOL9637     0.2052
  41911  H         93.9040   64.2160  245.2100 H     9637  MOL9637     0.2052
  41912  O        179.8130   35.5160  185.2430 O.3   9638  MOL9638    -0.4105
  41913  H        180.6080   36.0120  184.9550 H     9638  MOL9638     0.2052
  41914  H        179.2490   36.1240  185.7890 H     9638  MOL9638     0.2052
  41915  O          8.1060  194.5410   22.6880 O.3   9639  MOL9639    -0.4105
  41916  H          7.3550  194.7490   22.0940 H     9639  MOL9639     0.2052
  41917  H          7.9030  194.9090   23.5870 H     9639  MOL9639     0.2052
  41918  O        198.0180  127.2830  120.2370 O.3   9640  MOL9640    -0.4105
  41919  H        198.5490  126.6880  120.8080 H     9640  MOL9640     0.2052
  41920  H        198.6400  127.7820  119.6460 H     9640  MOL9640     0.2052
  41921  O         50.4820   18.3060  108.3770 O.3   9641  MOL9641    -0.4105
  41922  H         51.3100   18.1310  108.8700 H     9641  MOL9641     0.2052
  41923  H         50.4660   19.2670  108.1280 H     9641  MOL9641     0.2052
  41924  O         16.9560  170.2240   64.2940 O.3   9642  MOL9642    -0.4105
  41925  H         17.7090  170.6670   64.7380 H     9642  MOL9642     0.2052
  41926  H         16.7890  169.3600   64.7530 H     9642  MOL9642     0.2052
  41927  O         74.6170  143.5820   43.3030 O.3   9643  MOL9643    -0.4105
  41928  H         74.7920  143.6420   42.3410 H     9643  MOL9643     0.2052
  41929  H         73.8070  144.1200   43.5050 H     9643  MOL9643     0.2052
  41930  O          5.8010  193.7960  139.9290 O.3   9644  MOL9644    -0.4105
  41931  H          6.5870  193.2370  140.1030 H     9644  MOL9644     0.2052
  41932  H          5.0260  193.2000  139.7640 H     9644  MOL9644     0.2052
  41933  O         99.0090    7.1320  105.0250 O.3   9645  MOL9645    -0.4105
  41934  H         99.2410    6.1850  105.1270 H     9645  MOL9645     0.2052
  41935  H         98.0210    7.2140  105.0480 H     9645  MOL9645     0.2052
  41936  O         94.2950  171.8670   61.7320 O.3   9646  MOL9646    -0.4105
  41937  H         95.1850  172.2340   61.9180 H     9646  MOL9646     0.2052
  41938  H         93.6340  172.6030   61.8050 H     9646  MOL9646     0.2052
  41939  O          5.5730   74.5190  178.1740 O.3   9647  MOL9647    -0.4105
  41940  H          4.9590   73.7580  178.2430 H     9647  MOL9647     0.2052
  41941  H          6.2770   74.2900  177.5140 H     9647  MOL9647     0.2052
  41942  O         21.3690   17.5360  261.5790 O.3   9648  MOL9648    -0.4105
  41943  H         21.6040   18.3060  262.1390 H     9648  MOL9648     0.2052
  41944  H         21.9000   16.7560  261.8860 H     9648  MOL9648     0.2052
  41945  O         26.1720   13.9470  156.3010 O.3   9649  MOL9649    -0.4105
  41946  H         26.6970   13.1400  156.1150 H     9649  MOL9649     0.2052
  41947  H         25.7160   14.2200  155.4630 H     9649  MOL9649     0.2052
  41948  O        180.2830   12.3500  115.2640 O.3   9650  MOL9650    -0.4105
  41949  H        180.8920   13.1180  115.2760 H     9650  MOL9650     0.2052
  41950  H        179.3620   12.6810  115.4230 H     9650  MOL9650     0.2052
  41951  O          9.1360  156.5290   86.5570 O.3   9651  MOL9651    -0.4105
  41952  H          8.5790  157.3200   86.7110 H     9651  MOL9651     0.2052
  41953  H          8.5400  155.7720   86.3190 H     9651  MOL9651     0.2052
  41954  O         35.0830  100.8280  295.2780 O.3   9652  MOL9652    -0.4105
  41955  H         34.7690  100.2560  294.5460 H     9652  MOL9652     0.2052
  41956  H         35.3640  100.2450  296.0300 H     9652  MOL9652     0.2052
  41957  O        127.1450  192.2880  226.1580 O.3   9653  MOL9653    -0.4105
  41958  H        126.9140  192.7790  225.3420 H     9653  MOL9653     0.2052
  41959  H        127.9690  191.7640  225.9820 H     9653  MOL9653     0.2052
  41960  O        141.8610    4.0350  288.7230 O.3   9654  MOL9654    -0.4105
  41961  H        142.1490    3.1010  288.8010 H     9654  MOL9654     0.2052
  41962  H        142.0940    4.5020  289.5660 H     9654  MOL9654     0.2052
  41963  O         31.9120  186.9380  124.4750 O.3   9655  MOL9655    -0.4105
  41964  H         32.8560  187.1310  124.6530 H     9655  MOL9655     0.2052
  41965  H         31.8580  186.0810  123.9780 H     9655  MOL9655     0.2052
  41966  O        175.7600  196.3400  234.7020 O.3   9656  MOL9656    -0.4105
  41967  H        176.0740  195.5290  234.2510 H     9656  MOL9656     0.2052
  41968  H        176.3270  196.4900  235.5020 H     9656  MOL9656     0.2052
  41969  O         63.0640  191.9230  100.3840 O.3   9657  MOL9657    -0.4105
  41970  H         63.1170  190.9480  100.3020 H     9657  MOL9657     0.2052
  41971  H         62.1160  192.1930  100.2690 H     9657  MOL9657     0.2052
  41972  O        194.5830  120.8760   15.1630 O.3   9658  MOL9658    -0.4105
  41973  H        195.3450  121.4910   15.1810 H     9658  MOL9658     0.2052
  41974  H        193.7500  121.4150   15.1480 H     9658  MOL9658     0.2052
  41975  O        147.7620   46.8610   81.4870 O.3   9659  MOL9659    -0.4105
  41976  H        146.9480   46.6580   81.9930 H     9659  MOL9659     0.2052
  41977  H        147.8530   47.8480   81.4290 H     9659  MOL9659     0.2052
  41978  O         11.8630   44.5940   49.6000 O.3   9660  MOL9660    -0.4105
  41979  H         10.9240   44.8630   49.5250 H     9660  MOL9660     0.2052
  41980  H         12.3650   45.0050   48.8490 H     9660  MOL9660     0.2052
  41981  O        107.3850  108.3680   57.2290 O.3   9661  MOL9661    -0.4105
  41982  H        107.7760  109.0250   56.6150 H     9661  MOL9661     0.2052
  41983  H        106.6300  108.8000   57.7060 H     9661  MOL9661     0.2052
  41984  O         47.7040    9.6350  213.6970 O.3   9662  MOL9662    -0.4105
  41985  H         48.5880    9.2110  213.6870 H     9662  MOL9662     0.2052
  41986  H         47.8210   10.5920  213.9310 H     9662  MOL9662     0.2052
  41987  O         40.8450  108.3990  141.7540 O.3   9663  MOL9663    -0.4105
  41988  H         39.8890  108.2290  141.8850 H     9663  MOL9663     0.2052
  41989  H         40.9830  108.6930  140.8170 H     9663  MOL9663     0.2052
  41990  O        129.3690  197.4030  226.0710 O.3   9664  MOL9664    -0.4105
  41991  H        129.2570  197.6480  225.1290 H     9664  MOL9664     0.2052
  41992  H        130.2210  196.9020  226.1620 H     9664  MOL9664     0.2052
  41993  O        152.2180  187.8150  203.5590 O.3   9665  MOL9665    -0.4105
  41994  H        152.7190  187.8680  204.3990 H     9665  MOL9665     0.2052
  41995  H        152.4750  188.5890  202.9950 H     9665  MOL9665     0.2052
  41996  O        175.8220   48.2820   65.7600 O.3   9666  MOL9666    -0.4105
  41997  H        175.6600   47.6230   65.0520 H     9666  MOL9666     0.2052
  41998  H        176.5070   47.9140   66.3760 H     9666  MOL9666     0.2052
  41999  O        123.4160  156.0080  134.9610 O.3   9667  MOL9667    -0.4105
  42000  H        123.2940  155.0380  135.0150 H     9667  MOL9667     0.2052
  42001  H        122.5200  156.4340  134.9570 H     9667  MOL9667     0.2052
  42002  O         92.8250  108.4960  243.7040 O.3   9668  MOL9668    -0.4105
  42003  H         92.8030  107.5320  243.5300 H     9668  MOL9668     0.2052
  42004  H         93.0100  108.6320  244.6700 H     9668  MOL9668     0.2052
  42005  O        138.0880  125.7690    9.0850 O.3   9669  MOL9669    -0.4105
  42006  H        139.0470  125.7990    8.8840 H     9669  MOL9669     0.2052
  42007  H        137.8270  124.8210    9.2160 H     9669  MOL9669     0.2052
  42008  O         76.6370  178.6880  261.8570 O.3   9670  MOL9670    -0.4105
  42009  H         75.6710  178.5920  261.7260 H     9670  MOL9670     0.2052
  42010  H         76.8490  179.6560  261.9070 H     9670  MOL9670     0.2052
  42011  O         65.4730  105.9770   73.9700 O.3   9671  MOL9671    -0.4105
  42012  H         66.0790  105.2120   73.8770 H     9671  MOL9671     0.2052
  42013  H         64.7650  105.7340   74.6210 H     9671  MOL9671     0.2052
  42014  O        142.3230  169.4350  169.0540 O.3   9672  MOL9672    -0.4105
  42015  H        141.6560  168.8030  169.3950 H     9672  MOL9672     0.2052
  42016  H        141.8560  170.2740  168.8020 H     9672  MOL9672     0.2052
  42017  O         88.9380  170.7580   51.1240 O.3   9673  MOL9673    -0.4105
  42018  H         88.7930  170.5130   50.1860 H     9673  MOL9673     0.2052
  42019  H         88.9350  171.7480   51.1910 H     9673  MOL9673     0.2052
  42020  O        118.0520  149.6930  240.3780 O.3   9674  MOL9674    -0.4105
  42021  H        118.2230  148.7320  240.2890 H     9674  MOL9674     0.2052
  42022  H        117.2700  149.9230  239.8120 H     9674  MOL9674     0.2052
  42023  O        146.0240   94.5640  213.5290 O.3   9675  MOL9675    -0.4105
  42024  H        145.7940   93.6690  213.2030 H     9675  MOL9675     0.2052
  42025  H        147.0090   94.6100  213.6410 H     9675  MOL9675     0.2052
  42026  O        134.9320  154.1140  294.6170 O.3   9676  MOL9676    -0.4105
  42027  H        134.1460  153.7410  295.0700 H     9676  MOL9676     0.2052
  42028  H        135.4290  153.3670  294.1940 H     9676  MOL9676     0.2052
  42029  O        196.7340   95.3160   55.0610 O.3   9677  MOL9677    -0.4105
  42030  H        195.8780   94.9700   55.3890 H     9677  MOL9677     0.2052
  42031  H        197.4250   94.6180   55.2040 H     9677  MOL9677     0.2052
  42032  O        112.8500   71.7240   24.9710 O.3   9678  MOL9678    -0.4105
  42033  H        112.9500   71.1820   24.1610 H     9678  MOL9678     0.2052
  42034  H        113.1480   72.6480   24.7650 H     9678  MOL9678     0.2052
  42035  O         67.5170  129.4880  179.6120 O.3   9679  MOL9679    -0.4105
  42036  H         68.2980  129.8300  180.0950 H     9679  MOL9679     0.2052
  42037  H         67.7950  129.2770  178.6830 H     9679  MOL9679     0.2052
  42038  O         17.4930    5.7380   92.7490 O.3   9680  MOL9680    -0.4105
  42039  H         17.9100    6.6090   92.9150 H     9680  MOL9680     0.2052
  42040  H         16.5640    5.7670   93.0980 H     9680  MOL9680     0.2052
  42041  O         97.9330   26.8730  229.4030 O.3   9681  MOL9681    -0.4105
  42042  H         97.2980   27.4010  228.8760 H     9681  MOL9681     0.2052
  42043  H         98.6320   27.4850  229.7520 H     9681  MOL9681     0.2052
  42044  O         84.9310   27.7930  279.6860 O.3   9682  MOL9682    -0.4105
  42045  H         85.8920   27.7030  279.5140 H     9682  MOL9682     0.2052
  42046  H         84.6540   28.7090  279.4250 H     9682  MOL9682     0.2052
  42047  O        160.3240    2.9820  293.1300 O.3   9683  MOL9683    -0.4105
  42048  H        159.9230    2.2480  292.6180 H     9683  MOL9683     0.2052
  42049  H        161.2100    2.6820  293.4610 H     9683  MOL9683     0.2052
  42050  O        195.6550  151.4150  125.3140 O.3   9684  MOL9684    -0.4105
  42051  H        195.7180  150.7520  124.5950 H     9684  MOL9684     0.2052
  42052  H        194.7000  151.5060  125.5690 H     9684  MOL9684     0.2052
  42053  O        126.4440  118.9180  221.2540 O.3   9685  MOL9685    -0.4105
  42054  H        126.4180  117.9470  221.1250 H     9685  MOL9685     0.2052
  42055  H        125.5110  119.2450  221.3370 H     9685  MOL9685     0.2052
  42056  O        156.3120   79.3440  269.1610 O.3   9686  MOL9686    -0.4105
  42057  H        155.8660   78.9620  268.3770 H     9686  MOL9686     0.2052
  42058  H        157.2920   79.3020  269.0130 H     9686  MOL9686     0.2052
  42059  O         19.8280   88.1400  103.8210 O.3   9687  MOL9687    -0.4105
  42060  H         19.8520   89.1200  103.8510 H     9687  MOL9687     0.2052
  42061  H         19.0690   87.8310  104.3810 H     9687  MOL9687     0.2052
  42062  O         72.6710  165.8770  148.2140 O.3   9688  MOL9688    -0.4105
  42063  H         72.9530  165.6070  147.3150 H     9688  MOL9688     0.2052
  42064  H         73.4250  166.3560  148.6450 H     9688  MOL9688     0.2052
  42065  O         41.1960  146.9330   92.9410 O.3   9689  MOL9689    -0.4105
  42066  H         41.5410  146.0170   92.8970 H     9689  MOL9689     0.2052
  42067  H         40.4020  146.9380   93.5360 H     9689  MOL9689     0.2052
  42068  O        127.8530   98.6320  183.7360 O.3   9690  MOL9690    -0.4105
  42069  H        128.3150   97.7700  183.6600 H     9690  MOL9690     0.2052
  42070  H        126.9620   98.4710  184.1410 H     9690  MOL9690     0.2052
  42071  O        177.9640   34.6300  248.4200 O.3   9691  MOL9691    -0.4105
  42072  H        178.6390   35.2620  248.0950 H     9691  MOL9691     0.2052
  42073  H        177.1860   35.1500  248.7500 H     9691  MOL9691     0.2052
  42074  O        186.1630  190.1980  246.5680 O.3   9692  MOL9692    -0.4105
  42075  H        185.9200  191.0540  246.1580 H     9692  MOL9692     0.2052
  42076  H        187.1370  190.0590  246.4420 H     9692  MOL9692     0.2052
  42077  O        166.4100   45.1710  209.2850 O.3   9693  MOL9693    -0.4105
  42078  H        166.4980   44.1990  209.1950 H     9693  MOL9693     0.2052
  42079  H        165.4470   45.4030  209.2160 H     9693  MOL9693     0.2052
  42080  O          4.4600   10.4380   95.8560 O.3   9694  MOL9694    -0.4105
  42081  H          5.1860   11.0390   95.5860 H     9694  MOL9694     0.2052
  42082  H          3.7190   10.9900   96.2180 H     9694  MOL9694     0.2052
  42083  O          3.8540  159.5050  199.9950 O.3   9695  MOL9695    -0.4105
  42084  H          3.7670  158.5360  199.8770 H     9695  MOL9695     0.2052
  42085  H          2.9950  159.9280  199.7330 H     9695  MOL9695     0.2052
  42086  O        190.9600  118.7830    9.4330 O.3   9696  MOL9696    -0.4105
  42087  H        191.1570  118.0240   10.0210 H     9696  MOL9696     0.2052
  42088  H        189.9810  118.9450    9.4520 H     9696  MOL9696     0.2052
  42089  O        191.8740  185.4830  107.2240 O.3   9697  MOL9697    -0.4105
  42090  H        192.1890  184.7680  106.6330 H     9697  MOL9697     0.2052
  42091  H        192.4290  186.2890  107.0590 H     9697  MOL9697     0.2052
  42092  O         14.0370  125.4790  139.3820 O.3   9698  MOL9698    -0.4105
  42093  H         14.4190  126.3590  139.1820 H     9698  MOL9698     0.2052
  42094  H         13.6420  125.5110  140.2920 H     9698  MOL9698     0.2052
  42095  O        102.8470   35.4580  109.9840 O.3   9699  MOL9699    -0.4105
  42096  H        102.2980   36.2200  109.7030 H     9699  MOL9699     0.2052
  42097  H        103.7980   35.6800  109.8090 H     9699  MOL9699     0.2052
  42098  O         77.3070  173.6020   88.6080 O.3   9700  MOL9700    -0.4105
  42099  H         77.3810  173.4000   89.5640 H     9700  MOL9700     0.2052
  42100  H         77.7840  172.8930   88.1030 H     9700  MOL9700     0.2052
  42101  O        122.3610   97.3340  259.5170 O.3   9701  MOL9701    -0.4105
  42102  H        122.3890   98.1490  258.9740 H     9701  MOL9701     0.2052
  42103  H        121.4180   97.0300  259.5740 H     9701  MOL9701     0.2052
  42104  O        188.1980  194.2800  207.9300 O.3   9702  MOL9702    -0.4105
  42105  H        188.2920  193.4500  208.4420 H     9702  MOL9702     0.2052
  42106  H        188.6240  194.1490  207.0440 H     9702  MOL9702     0.2052
  42107  O        106.3360  139.1710   16.9010 O.3   9703  MOL9703    -0.4105
  42108  H        106.7230  139.8990   17.4300 H     9703  MOL9703     0.2052
  42109  H        107.0790  138.6500   16.4980 H     9703  MOL9703     0.2052
  42110  O        154.1390   13.4250  135.8550 O.3   9704  MOL9704    -0.4105
  42111  H        153.6260   13.6080  135.0400 H     9704  MOL9704     0.2052
  42112  H        153.5190   13.4730  136.6290 H     9704  MOL9704     0.2052
  42113  O         48.9550   70.9950   90.6390 O.3   9705  MOL9705    -0.4105
  42114  H         48.7610   70.0360   90.5710 H     9705  MOL9705     0.2052
  42115  H         49.9150   71.1330   90.4330 H     9705  MOL9705     0.2052
  42116  O        107.1100  139.9600    7.5370 O.3   9706  MOL9706    -0.4105
  42117  H        106.9840  139.7360    8.4830 H     9706  MOL9706     0.2052
  42118  H        106.7870  139.1960    6.9920 H     9706  MOL9706     0.2052
  42119  O        163.5380   66.2490  285.7080 O.3   9707  MOL9707    -0.4105
  42120  H        164.3450   65.7630  285.4400 H     9707  MOL9707     0.2052
  42121  H        163.8140   67.0540  286.2180 H     9707  MOL9707     0.2052
  42122  O        113.6540   69.1950   27.3280 O.3   9708  MOL9708    -0.4105
  42123  H        113.8510   68.9770   26.3930 H     9708  MOL9708     0.2052
  42124  H        113.6440   70.1830   27.4210 H     9708  MOL9708     0.2052
  42125  O        104.2200  196.5900  151.3340 O.3   9709  MOL9709    -0.4105
  42126  H        103.8880  197.5040  151.4540 H     9709  MOL9709     0.2052
  42127  H        103.4430  195.9970  151.1650 H     9709  MOL9709     0.2052
  42128  O        139.8600  198.3400   89.8980 O.3   9710  MOL9710    -0.4105
  42129  H        139.0210  198.7480   90.1980 H     9710  MOL9710     0.2052
  42130  H        140.5510  199.0500   89.8480 H     9710  MOL9710     0.2052
  42131  O        150.9770  183.0290   92.3180 O.3   9711  MOL9711    -0.4105
  42132  H        150.7740  182.1300   91.9830 H     9711  MOL9711     0.2052
  42133  H        151.7640  182.9660   92.9180 H     9711  MOL9711     0.2052
  42134  O        183.3250   74.0640   36.2250 O.3   9712  MOL9712    -0.4105
  42135  H        184.1990   74.2090   36.6430 H     9712  MOL9712     0.2052
  42136  H        183.1390   73.0900   36.2210 H     9712  MOL9712     0.2052
  42137  O        127.0560   41.3600   25.8250 O.3   9713  MOL9713    -0.4105
  42138  H        126.4560   42.1170   25.6570 H     9713  MOL9713     0.2052
  42139  H        127.7800   41.3820   25.1470 H     9713  MOL9713     0.2052
  42140  O        110.5450  115.4030   29.9660 O.3   9714  MOL9714    -0.4105
  42141  H        111.5120  115.4740   30.1070 H     9714  MOL9714     0.2052
  42142  H        110.2650  114.4800   30.2010 H     9714  MOL9714     0.2052
  42143  O         11.3530  128.1680  239.6270 O.3   9715  MOL9715    -0.4105
  42144  H         10.5810  128.1640  239.0240 H     9715  MOL9715     0.2052
  42145  H         11.8590  127.3250  239.4890 H     9715  MOL9715     0.2052
  42146  O        188.5450  139.1800  216.0480 O.3   9716  MOL9716    -0.4105
  42147  H        188.3520  138.8650  216.9560 H     9716  MOL9716     0.2052
  42148  H        189.2110  138.5680  215.6410 H     9716  MOL9716     0.2052
  42149  O         86.6500  100.8710  256.6980 O.3   9717  MOL9717    -0.4105
  42150  H         87.6100  100.9640  256.8700 H     9717  MOL9717     0.2052
  42151  H         86.4850   99.9580  256.3450 H     9717  MOL9717     0.2052
  42152  O        154.7920   45.9140   17.8490 O.3   9718  MOL9718    -0.4105
  42153  H        155.1530   46.4480   17.1110 H     9718  MOL9718     0.2052
  42154  H        153.8190   46.0990   17.9190 H     9718  MOL9718     0.2052
  42155  O        161.8660  197.4170   88.1640 O.3   9719  MOL9719    -0.4105
  42156  H        161.1640  197.2840   88.8350 H     9719  MOL9719     0.2052
  42157  H        162.2900  196.5390   87.9810 H     9719  MOL9719     0.2052
  42158  O         97.8070  105.4580   39.0850 O.3   9720  MOL9720    -0.4105
  42159  H         97.7130  105.6490   40.0420 H     9720  MOL9720     0.2052
  42160  H         98.6760  105.0000   38.9440 H     9720  MOL9720     0.2052
  42161  O         35.8500    3.0170  195.2720 O.3   9721  MOL9721    -0.4105
  42162  H         35.9670    2.2880  194.6270 H     9721  MOL9721     0.2052
  42163  H         35.1430    2.7520  195.9150 H     9721  MOL9721     0.2052
  42164  O        127.8570   40.7710   51.1560 O.3   9722  MOL9722    -0.4105
  42165  H        128.7040   40.3560   51.4210 H     9722  MOL9722     0.2052
  42166  H        127.9990   41.7510   51.0900 H     9722  MOL9722     0.2052
  42167  O         88.6900   43.6860   16.6360 O.3   9723  MOL9723    -0.4105
  42168  H         89.6120   43.4760   16.8950 H     9723  MOL9723     0.2052
  42169  H         88.1110   42.9280   16.9070 H     9723  MOL9723     0.2052
  42170  O        114.9610   73.4530  261.7840 O.3   9724  MOL9724    -0.4105
  42171  H        114.6990   73.7830  260.8990 H     9724  MOL9724     0.2052
  42172  H        115.3580   74.2080  262.2910 H     9724  MOL9724     0.2052
  42173  O         92.4580  168.4200   49.6040 O.3   9725  MOL9725    -0.4105
  42174  H         92.9780  168.8430   50.3180 H     9725  MOL9725     0.2052
  42175  H         91.9990  169.1340   49.0890 H     9725  MOL9725     0.2052
  42176  O        118.5550  100.9270  218.6830 O.3   9726  MOL9726    -0.4105
  42177  H        118.3200  100.1000  219.1540 H     9726  MOL9726     0.2052
  42178  H        117.7370  101.4830  218.6050 H     9726  MOL9726     0.2052
  42179  O         23.2660  124.6790   21.7160 O.3   9727  MOL9727    -0.4105
  42180  H         22.3740  124.4280   21.3960 H     9727  MOL9727     0.2052
  42181  H         23.7070  123.8660   22.0750 H     9727  MOL9727     0.2052
  42182  O         81.0590   39.2830    6.7580 O.3   9728  MOL9728    -0.4105
  42183  H         80.2200   39.6950    6.4620 H     9728  MOL9728     0.2052
  42184  H         81.8000   39.6710    6.2250 H     9728  MOL9728     0.2052
  42185  O        105.6270  182.0740   63.3630 O.3   9729  MOL9729    -0.4105
  42186  H        106.5970  181.9400   63.4060 H     9729  MOL9729     0.2052
  42187  H        105.1900  181.1840   63.3810 H     9729  MOL9729     0.2052
  42188  O        120.2150  152.8950  144.8420 O.3   9730  MOL9730    -0.4105
  42189  H        120.2230  152.1320  145.4570 H     9730  MOL9730     0.2052
  42190  H        119.6340  153.6000  145.2290 H     9730  MOL9730     0.2052
  42191  O        163.1160   11.5130  194.1610 O.3   9731  MOL9731    -0.4105
  42192  H        164.0830   11.3540  194.1840 H     9731  MOL9731     0.2052
  42193  H        162.9000   12.2100  194.8330 H     9731  MOL9731     0.2052
  42194  O         46.1380  124.7400  189.9110 O.3   9732  MOL9732    -0.4105
  42195  H         46.5220  124.5120  190.7830 H     9732  MOL9732     0.2052
  42196  H         45.3680  125.3470  190.0610 H     9732  MOL9732     0.2052
  42197  O         92.2530  196.1380  173.9460 O.3   9733  MOL9733    -0.4105
  42198  H         91.6220  196.8030  174.2920 H     9733  MOL9733     0.2052
  42199  H         92.0810  196.0220  172.9750 H     9733  MOL9733     0.2052
  42200  O          6.0190  191.9740   22.1870 O.3   9734  MOL9734    -0.4105
  42201  H          5.2620  192.1330   21.5840 H     9734  MOL9734     0.2052
  42202  H          5.8030  192.3740   23.0690 H     9734  MOL9734     0.2052
  42203  O         82.3190   88.8220  173.8840 O.3   9735  MOL9735    -0.4105
  42204  H         81.7830   88.1450  174.3470 H     9735  MOL9735     0.2052
  42205  H         82.4150   88.5470  172.9360 H     9735  MOL9735     0.2052
  42206  O        178.8640  174.0880   99.5600 O.3   9736  MOL9736    -0.4105
  42207  H        178.9710  173.1280   99.3950 H     9736  MOL9736     0.2052
  42208  H        178.0030  174.3780   99.1600 H     9736  MOL9736     0.2052
  42209  O         63.7370  107.1230  265.7840 O.3   9737  MOL9737    -0.4105
  42210  H         63.5730  108.0700  265.5940 H     9737  MOL9737     0.2052
  42211  H         64.7120  106.9970  265.9180 H     9737  MOL9737     0.2052
  42212  O        172.5930   47.8510   92.3110 O.3   9738  MOL9738    -0.4105
  42213  H        172.7250   46.9520   91.9440 H     9738  MOL9738     0.2052
  42214  H        172.5800   47.7840   93.3010 H     9738  MOL9738     0.2052
  42215  O         85.6840  153.3620   86.0510 O.3   9739  MOL9739    -0.4105
  42216  H         84.7710  153.2500   86.3900 H     9739  MOL9739     0.2052
  42217  H         85.9890  152.4900   85.6880 H     9739  MOL9739     0.2052
  42218  O         43.5470  174.0520   52.5660 O.3   9740  MOL9740    -0.4105
  42219  H         42.7120  174.4370   52.9050 H     9740  MOL9740     0.2052
  42220  H         43.9030  174.6530   51.8610 H     9740  MOL9740     0.2052
  42221  O         21.6230  120.6720  139.8090 O.3   9741  MOL9741    -0.4105
  42222  H         20.6960  120.4460  140.0330 H     9741  MOL9741     0.2052
  42223  H         21.9080  120.0960  139.0520 H     9741  MOL9741     0.2052
  42224  O        164.6820   85.3990  222.1440 O.3   9742  MOL9742    -0.4105
  42225  H        164.2740   86.1720  222.5860 H     9742  MOL9742     0.2052
  42226  H        164.8740   85.6450  221.2020 H     9742  MOL9742     0.2052
  42227  O         73.0930    6.4960   49.4240 O.3   9743  MOL9743    -0.4105
  42228  H         72.3860    7.1760   49.4030 H     9743  MOL9743     0.2052
  42229  H         72.6780    5.6120   49.2490 H     9743  MOL9743     0.2052
  42230  O          9.3250  189.1260   80.8210 O.3   9744  MOL9744    -0.4105
  42231  H          8.4410  189.2470   81.2270 H     9744  MOL9744     0.2052
  42232  H          9.3810  188.1990   80.4700 H     9744  MOL9744     0.2052
  42233  O        149.1050   47.6410  244.3390 O.3   9745  MOL9745    -0.4105
  42234  H        149.4010   48.5510  244.5530 H     9745  MOL9745     0.2052
  42235  H        149.7330   47.0020  244.7660 H     9745  MOL9745     0.2052
  42236  O        105.0150   26.3790   12.5140 O.3   9746  MOL9746    -0.4105
  42237  H        104.2470   26.7970   12.9560 H     9746  MOL9746     0.2052
  42238  H        104.8120   25.4160   12.3840 H     9746  MOL9746     0.2052
  42239  O        114.5700  165.3640  198.3980 O.3   9747  MOL9747    -0.4105
  42240  H        113.9020  165.8250  197.8490 H     9747  MOL9747     0.2052
  42241  H        114.1100  164.9780  199.1880 H     9747  MOL9747     0.2052
  42242  O         34.0770  122.1050   70.4640 O.3   9748  MOL9748    -0.4105
  42243  H         33.2740  121.8120   69.9850 H     9748  MOL9748     0.2052
  42244  H         33.9080  122.0160   71.4370 H     9748  MOL9748     0.2052
  42245  O        150.1070   72.7980   68.5540 O.3   9749  MOL9749    -0.4105
  42246  H        150.7140   72.4670   69.2480 H     9749  MOL9749     0.2052
  42247  H        149.3180   72.1970   68.5190 H     9749  MOL9749     0.2052
  42248  O        175.4330  158.7750  169.2520 O.3   9750  MOL9750    -0.4105
  42249  H        174.5380  158.7360  169.6500 H     9750  MOL9750     0.2052
  42250  H        175.5480  159.6660  168.8310 H     9750  MOL9750     0.2052
  42251  O         17.4830   72.1580  235.3330 O.3   9751  MOL9751    -0.4105
  42252  H         17.6670   71.1960  235.3500 H     9751  MOL9751     0.2052
  42253  H         16.4990   72.2860  235.3170 H     9751  MOL9751     0.2052
  42254  O         96.0540  127.8220    3.7710 O.3   9752  MOL9752    -0.4105
  42255  H         96.1800  127.3250    4.6060 H     9752  MOL9752     0.2052
  42256  H         95.3100  128.4660    3.9010 H     9752  MOL9752     0.2052
  42257  O         18.6720  102.5420  292.6040 O.3   9753  MOL9753    -0.4105
  42258  H         19.3600  101.8460  292.6510 H     9753  MOL9753     0.2052
  42259  H         18.8990  103.1540  291.8570 H     9753  MOL9753     0.2052
  42260  O        102.4390  155.8610  248.2380 O.3   9754  MOL9754    -0.4105
  42261  H        102.6510  156.8170  248.1810 H     9754  MOL9754     0.2052
  42262  H        101.6900  155.6720  247.6160 H     9754  MOL9754     0.2052
  42263  O        160.1460   77.8600  170.4060 O.3   9755  MOL9755    -0.4105
  42264  H        161.1150   77.8440  170.2550 H     9755  MOL9755     0.2052
  42265  H        159.9440   77.2780  171.1840 H     9755  MOL9755     0.2052
  42266  O         50.2730  148.7290  250.4750 O.3   9756  MOL9756    -0.4105
  42267  H         49.9990  149.6280  250.1970 H     9756  MOL9756     0.2052
  42268  H         49.5940  148.0830  250.1490 H     9756  MOL9756     0.2052
  42269  O         26.0670  141.3790   45.0390 O.3   9757  MOL9757    -0.4105
  42270  H         25.7550  141.1240   44.1450 H     9757  MOL9757     0.2052
  42271  H         26.9100  141.8920   44.9380 H     9757  MOL9757     0.2052
  42272  O        108.3480  185.1550   64.2760 O.3   9758  MOL9758    -0.4105
  42273  H        109.0660  184.5000   64.4020 H     9758  MOL9758     0.2052
  42274  H        107.4820  184.6710   64.2780 H     9758  MOL9758     0.2052
  42275  O         11.1080   99.1310  291.8960 O.3   9759  MOL9759    -0.4105
  42276  H         11.9060   98.5680  291.8040 H     9759  MOL9759     0.2052
  42277  H         11.1510   99.8460  291.2090 H     9759  MOL9759     0.2052
  42278  O        158.5220   28.7270  247.6020 O.3   9760  MOL9760    -0.4105
  42279  H        159.2160   28.5850  246.9250 H     9760  MOL9760     0.2052
  42280  H        158.1240   27.8460  247.8270 H     9760  MOL9760     0.2052
  42281  O         91.3510   24.4510  233.5080 O.3   9761  MOL9761    -0.4105
  42282  H         91.2320   24.9870  232.6960 H     9761  MOL9761     0.2052
  42283  H         91.7470   25.0310  234.2080 H     9761  MOL9761     0.2052
  42284  O        152.8110   17.2140  133.7380 O.3   9762  MOL9762    -0.4105
  42285  H        152.3640   16.8970  132.9260 H     9762  MOL9762     0.2052
  42286  H        152.1170   17.5420  134.3670 H     9762  MOL9762     0.2052
  42287  O         66.4540  190.6410   51.6630 O.3   9763  MOL9763    -0.4105
  42288  H         67.4080  190.4170   51.6850 H     9763  MOL9763     0.2052
  42289  H         66.3590  191.5660   51.3180 H     9763  MOL9763     0.2052
  42290  O         74.2050   31.5640   66.0240 O.3   9764  MOL9764    -0.4105
  42291  H         73.5890   32.1120   66.5530 H     9764  MOL9764     0.2052
  42292  H         73.8900   30.6230   66.0570 H     9764  MOL9764     0.2052
  42293  O         34.8720   43.4670  228.3870 O.3   9765  MOL9765    -0.4105
  42294  H         35.5740   42.7840  228.3610 H     9765  MOL9765     0.2052
  42295  H         34.0140   43.0410  228.1280 H     9765  MOL9765     0.2052
  42296  O        198.5050   36.0900   88.0090 O.3   9766  MOL9766    -0.4105
  42297  H        197.7920   36.6370   87.6170 H     9766  MOL9766     0.2052
  42298  H        198.6850   35.3300   87.3970 H     9766  MOL9766     0.2052
  42299  O        124.4400  115.7740  192.5020 O.3   9767  MOL9767    -0.4105
  42300  H        123.5420  116.0660  192.2380 H     9767  MOL9767     0.2052
  42301  H        124.3790  115.3550  193.4000 H     9767  MOL9767     0.2052
  42302  O        191.4600   82.4070  242.2840 O.3   9768  MOL9768    -0.4105
  42303  H        190.5350   82.1240  242.1210 H     9768  MOL9768     0.2052
  42304  H        191.9430   81.6550  242.7150 H     9768  MOL9768     0.2052
  42305  O        103.2720   32.9070   13.4720 O.3   9769  MOL9769    -0.4105
  42306  H        102.7380   32.1210   13.7120 H     9769  MOL9769     0.2052
  42307  H        104.1640   32.5960   13.1680 H     9769  MOL9769     0.2052
  42308  O         27.1960   88.6370  135.5810 O.3   9770  MOL9770    -0.4105
  42309  H         26.3950   89.0400  135.9760 H     9770  MOL9770     0.2052
  42310  H         27.8620   89.3560  135.4280 H     9770  MOL9770     0.2052
  42311  O        167.2350  151.4530  265.4570 O.3   9771  MOL9771    -0.4105
  42312  H        167.3070  150.4780  265.5130 H     9771  MOL9771     0.2052
  42313  H        167.2260  151.8170  266.3810 H     9771  MOL9771     0.2052
  42314  O        123.5860  164.0970  207.4790 O.3   9772  MOL9772    -0.4105
  42315  H        123.1400  163.4030  208.0080 H     9772  MOL9772     0.2052
  42316  H        122.9390  164.4430  206.8110 H     9772  MOL9772     0.2052
  42317  O        166.6700  162.5550    2.1720 O.3   9773  MOL9773    -0.4105
  42318  H        165.7060  162.4180    2.0590 H     9773  MOL9773     0.2052
  42319  H        166.8430  163.5310    2.2020 H     9773  MOL9773     0.2052
  42320  O        187.1250   10.2480   44.4130 O.3   9774  MOL9774    -0.4105
  42321  H        187.2160   11.2210   44.4780 H     9774  MOL9774     0.2052
  42322  H        186.1600   10.0220   44.4560 H     9774  MOL9774     0.2052
  42323  O        175.5640   52.3420  108.9430 O.3   9775  MOL9775    -0.4105
  42324  H        175.4100   51.4660  108.5310 H     9775  MOL9775     0.2052
  42325  H        176.3930   52.7260  108.5550 H     9775  MOL9775     0.2052
  42326  O        110.0040   66.6640   42.6920 O.3   9776  MOL9776    -0.4105
  42327  H        110.4520   66.0630   43.3240 H     9776  MOL9776     0.2052
  42328  H        110.6870   67.0240   42.0690 H     9776  MOL9776     0.2052
  42329  O         61.1050   13.0380  276.6350 O.3   9777  MOL9777    -0.4105
  42330  H         60.3920   13.7090  276.5950 H     9777  MOL9777     0.2052
  42331  H         60.6850   12.1390  276.6290 H     9777  MOL9777     0.2052
  42332  O        125.0250  121.1820  227.6840 O.3   9778  MOL9778    -0.4105
  42333  H        124.7570  120.2390  227.6840 H     9778  MOL9778     0.2052
  42334  H        124.2030  121.7380  227.6840 H     9778  MOL9778     0.2052
  42335  O        144.4230   48.9640   81.9160 O.3   9779  MOL9779    -0.4105
  42336  H        143.6900   48.7660   82.5360 H     9779  MOL9779     0.2052
  42337  H        144.4950   49.9500   81.8250 H     9779  MOL9779     0.2052
  42338  O         95.7250   94.7810   28.2500 O.3   9780  MOL9780    -0.4105
  42339  H         94.7800   94.8150   28.5090 H     9780  MOL9780     0.2052
  42340  H         95.9370   95.6030   27.7370 H     9780  MOL9780     0.2052
  42341  O        153.8930   94.6160  130.5480 O.3   9781  MOL9781    -0.4105
  42342  H        153.2470   95.2870  130.2430 H     9781  MOL9781     0.2052
  42343  H        154.7470   94.7650  130.0660 H     9781  MOL9781     0.2052
  42344  O        122.0670  157.2560   47.7180 O.3   9782  MOL9782    -0.4105
  42345  H        122.9420  157.6790   47.8420 H     9782  MOL9782     0.2052
  42346  H        121.7390  157.4820   46.8090 H     9782  MOL9782     0.2052
  42347  O        161.1380   65.5820  112.3170 O.3   9783  MOL9783    -0.4105
  42348  H        160.7130   64.7410  112.0510 H     9783  MOL9783     0.2052
  42349  H        162.1170   65.4920  112.1830 H     9783  MOL9783     0.2052
  42350  O        181.0850   45.2510   63.2330 O.3   9784  MOL9784    -0.4105
  42351  H        180.3780   45.3390   62.5600 H     9784  MOL9784     0.2052
  42352  H        181.3720   44.3010   63.2590 H     9784  MOL9784     0.2052
  42353  O        147.2690  197.7500  126.8430 O.3   9785  MOL9785    -0.4105
  42354  H        146.2920  197.7660  126.7630 H     9785  MOL9785     0.2052
  42355  H        147.5610  196.8020  126.8810 H     9785  MOL9785     0.2052
  42356  O         84.7860  138.8070  256.2050 O.3   9786  MOL9786    -0.4105
  42357  H         84.0710  138.2420  255.8450 H     9786  MOL9786     0.2052
  42358  H         85.6510  138.3430  256.0610 H     9786  MOL9786     0.2052
  42359  O         48.5470    9.9980  210.7670 O.3   9787  MOL9787    -0.4105
  42360  H         49.4780    9.6930  210.7800 H     9787  MOL9787     0.2052
  42361  H         48.5300   10.9530  211.0390 H     9787  MOL9787     0.2052
  42362  O        176.8530   81.6150  210.3070 O.3   9788  MOL9788    -0.4105
  42363  H        177.0550   82.0320  211.1700 H     9788  MOL9788     0.2052
  42364  H        177.0420   80.6440  210.3790 H     9788  MOL9788     0.2052
  42365  O        157.3930   80.4750  266.2530 O.3   9789  MOL9789    -0.4105
  42366  H        157.3500   79.8680  265.4850 H     9789  MOL9789     0.2052
  42367  H        158.2680   80.9420  266.2320 H     9789  MOL9789     0.2052
  42368  O         69.3720  185.8880  253.7070 O.3   9790  MOL9790    -0.4105
  42369  H         68.4460  185.7770  253.4060 H     9790  MOL9790     0.2052
  42370  H         69.5470  186.8570  253.8230 H     9790  MOL9790     0.2052
  42371  O        122.1710  152.1290  147.7390 O.3   9791  MOL9791    -0.4105
  42372  H        122.2190  151.3650  148.3510 H     9791  MOL9791     0.2052
  42373  H        121.5460  152.7970  148.1230 H     9791  MOL9791     0.2052
  42374  O         64.0290  162.1540  189.2300 O.3   9792  MOL9792    -0.4105
  42375  H         63.7990  161.3220  188.7650 H     9792  MOL9792     0.2052
  42376  H         63.1870  162.6350  189.4410 H     9792  MOL9792     0.2052
  42377  O        158.4410  193.5610   85.9290 O.3   9793  MOL9793    -0.4105
  42378  H        157.6950  193.5500   86.5650 H     9793  MOL9793     0.2052
  42379  H        158.7760  192.6330   85.8280 H     9793  MOL9793     0.2052
  42380  O         91.8280   95.8880  260.2210 O.3   9794  MOL9794    -0.4105
  42381  H         91.3660   95.0270  260.1440 H     9794  MOL9794     0.2052
  42382  H         91.1600   96.6100  260.0930 H     9794  MOL9794     0.2052
  42383  O         32.3970  150.0880  242.2370 O.3   9795  MOL9795    -0.4105
  42384  H         31.5020  150.4800  242.1540 H     9795  MOL9795     0.2052
  42385  H         32.2970  149.1520  242.5510 H     9795  MOL9795     0.2052
  42386  O        165.5890   67.7040   46.4030 O.3   9796  MOL9796    -0.4105
  42387  H        165.0860   68.4940   46.6920 H     9796  MOL9796     0.2052
  42388  H        164.9970   67.1500   45.8320 H     9796  MOL9796     0.2052
  42389  O         44.6720  139.7500  140.2510 O.3   9797  MOL9797    -0.4105
  42390  H         44.3930  140.5450  140.7530 H     9797  MOL9797     0.2052
  42391  H         45.5670  139.4750  140.5780 H     9797  MOL9797     0.2052
  42392  O        136.2370  154.4410  297.5160 O.3   9798  MOL9798    -0.4105
  42393  H        135.4370  154.0850  297.9560 H     9798  MOL9798     0.2052
  42394  H        136.7290  153.6830  297.1060 H     9798  MOL9798     0.2052
  42395  O         20.7850  124.5790  137.1700 O.3   9799  MOL9799    -0.4105
  42396  H         20.0220  124.2630  137.6970 H     9799  MOL9799     0.2052
  42397  H         20.6420  124.3100  136.2250 H     9799  MOL9799     0.2052
  42398  O        159.6870   75.9380  201.0080 O.3   9800  MOL9800    -0.4105
  42399  H        159.2620   75.1410  200.6290 H     9800  MOL9800     0.2052
  42400  H        160.1050   75.6860  201.8720 H     9800  MOL9800     0.2052
  42401  O        133.1620    3.9040  278.8610 O.3   9801  MOL9801    -0.4105
  42402  H        132.2720    3.6090  279.1480 H     9801  MOL9801     0.2052
  42403  H        133.8320    3.5130  279.4790 H     9801  MOL9801     0.2052
  42404  O         43.3460   79.6400   55.3860 O.3   9802  MOL9802    -0.4105
  42405  H         43.7070   80.2160   56.0920 H     9802  MOL9802     0.2052
  42406  H         43.7620   79.9060   54.5260 H     9802  MOL9802     0.2052
  42407  O         69.3680   41.4430  248.7570 O.3   9803  MOL9803    -0.4105
  42408  H         69.8040   40.9600  248.0250 H     9803  MOL9803     0.2052
  42409  H         69.5850   42.4070  248.6660 H     9803  MOL9803     0.2052
  42410  O        166.8610  175.4760   41.6400 O.3   9804  MOL9804    -0.4105
  42411  H        167.4230  174.6730   41.6590 H     9804  MOL9804     0.2052
  42412  H        167.4550  176.2700   41.5970 H     9804  MOL9804     0.2052
  42413  O         31.7200  148.9640  239.3640 O.3   9805  MOL9805    -0.4105
  42414  H         30.8520  149.3880  239.1980 H     9805  MOL9805     0.2052
  42415  H         31.5600  148.1060  239.8360 H     9805  MOL9805     0.2052
  42416  O         17.0560   76.9870  185.2360 O.3   9806  MOL9806    -0.4105
  42417  H         17.7470   77.0290  185.9300 H     9806  MOL9806     0.2052
  42418  H         16.3990   77.7110  185.4090 H     9806  MOL9806     0.2052
  42419  O         91.1310  157.2720  286.5180 O.3   9807  MOL9807    -0.4105
  42420  H         91.9860  156.7980  286.4500 H     9807  MOL9807     0.2052
  42421  H         90.6150  156.8760  287.2670 H     9807  MOL9807     0.2052
  42422  O        182.5540   20.8370  175.1770 O.3   9808  MOL9808    -0.4105
  42423  H        181.6600   20.6180  175.5130 H     9808  MOL9808     0.2052
  42424  H        182.4650   21.1630  174.2440 H     9808  MOL9808     0.2052
  42425  O        197.3450  142.1190  251.2510 O.3   9809  MOL9809    -0.4105
  42426  H        197.5030  141.1610  251.3830 H     9809  MOL9809     0.2052
  42427  H        198.0470  142.4700  250.6440 H     9809  MOL9809     0.2052
  42428  O         46.3150   76.8860   93.5890 O.3   9810  MOL9810    -0.4105
  42429  H         45.9340   75.9840   93.5460 H     9810  MOL9810     0.2052
  42430  H         47.2880   76.8210   93.4070 H     9810  MOL9810     0.2052
  42431  O        101.1640  140.3150   35.1050 O.3   9811  MOL9811    -0.4105
  42432  H        101.0570  141.1010   35.6800 H     9811  MOL9811     0.2052
  42433  H        101.7640  140.5590   34.3540 H     9811  MOL9811     0.2052
  42434  O        145.0020   46.8060  239.5780 O.3   9812  MOL9812    -0.4105
  42435  H        145.4080   47.6630  239.8260 H     9812  MOL9812     0.2052
  42436  H        145.5950   46.0780  239.8980 H     9812  MOL9812     0.2052
  42437  O        178.9610  127.0190  241.4270 O.3   9813  MOL9813    -0.4105
  42438  H        178.2670  127.5180  241.9070 H     9813  MOL9813     0.2052
  42439  H        178.6690  126.9090  240.4850 H     9813  MOL9813     0.2052
  42440  O        114.7880   15.9160  228.6370 O.3   9814  MOL9814    -0.4105
  42441  H        113.9280   16.3810  228.5730 H     9814  MOL9814     0.2052
  42442  H        115.5020   16.5980  228.7370 H     9814  MOL9814     0.2052
  42443  O         87.5820  193.6090  237.7640 O.3   9815  MOL9815    -0.4105
  42444  H         88.2110  194.3510  237.6420 H     9815  MOL9815     0.2052
  42445  H         86.6900  193.9900  237.9730 H     9815  MOL9815     0.2052
  42446  O        180.9620   82.7970  211.4280 O.3   9816  MOL9816    -0.4105
  42447  H        180.6040   83.2170  212.2390 H     9816  MOL9816     0.2052
  42448  H        181.5960   82.0840  211.7020 H     9816  MOL9816     0.2052
  42449  O         43.0160  136.8970  140.3360 O.3   9817  MOL9817    -0.4105
  42450  H         42.5550  137.6750  140.7140 H     9817  MOL9817     0.2052
  42451  H         43.9240  136.8500  140.7350 H     9817  MOL9817     0.2052
  42452  O         19.9020   99.3510  290.8230 O.3   9818  MOL9818    -0.4105
  42453  H         20.6050   98.6730  290.7430 H     9818  MOL9818     0.2052
  42454  H         20.0870  100.0690  290.1630 H     9818  MOL9818     0.2052
  42455  O        142.7300  179.8390   17.1760 O.3   9819  MOL9819    -0.4105
  42456  H        143.3970  179.5430   17.8300 H     9819  MOL9819     0.2052
  42457  H        142.4300  179.0470   16.6580 H     9819  MOL9819     0.2052
  42458  O         24.9900  170.4760  126.6180 O.3   9820  MOL9820    -0.4105
  42459  H         25.7670  169.8880  126.5160 H     9820  MOL9820     0.2052
  42460  H         24.7060  170.4530  127.5690 H     9820  MOL9820     0.2052
  42461  O         27.2970  114.3260  146.8040 O.3   9821  MOL9821    -0.4105
  42462  H         27.2540  115.3050  146.8270 H     9821  MOL9821     0.2052
  42463  H         26.3790  113.9720  146.9330 H     9821  MOL9821     0.2052
  42464  O        184.0760   92.4010   75.3190 O.3   9822  MOL9822    -0.4105
  42465  H        184.4480   91.7190   74.7210 H     9822  MOL9822     0.2052
  42466  H        183.3050   92.8270   74.8620 H     9822  MOL9822     0.2052
  42467  O        113.0520  181.3330  161.6690 O.3   9823  MOL9823    -0.4105
  42468  H        113.4040  181.3510  162.5840 H     9823  MOL9823     0.2052
  42469  H        113.5840  180.6790  161.1450 H     9823  MOL9823     0.2052
  42470  O        164.0810   74.2940  155.3500 O.3   9824  MOL9824    -0.4105
  42471  H        164.3600   74.7310  156.1820 H     9824  MOL9824     0.2052
  42472  H        163.5140   74.9300  154.8410 H     9824  MOL9824     0.2052
  42473  O         16.2200  113.0070  259.0080 O.3   9825  MOL9825    -0.4105
  42474  H         15.7810  112.9070  259.8780 H     9825  MOL9825     0.2052
  42475  H         15.8160  113.7860  258.5440 H     9825  MOL9825     0.2052
  42476  O         64.9310  155.9060  119.6250 O.3   9826  MOL9826    -0.4105
  42477  H         64.3810  156.2210  120.3730 H     9826  MOL9826     0.2052
  42478  H         64.4130  155.2210  119.1270 H     9826  MOL9826     0.2052
  42479  O        191.1960  161.9450  232.2810 O.3   9827  MOL9827    -0.4105
  42480  H        191.9260  161.5820  232.8250 H     9827  MOL9827     0.2052
  42481  H        191.1600  162.9260  232.4240 H     9827  MOL9827     0.2052
  42482  O        140.7670   30.1170  105.8380 O.3   9828  MOL9828    -0.4105
  42483  H        141.0420   31.0550  105.9110 H     9828  MOL9828     0.2052
  42484  H        139.7760   30.0860  105.7980 H     9828  MOL9828     0.2052
  42485  O        169.1400   92.3100   45.2530 O.3   9829  MOL9829    -0.4105
  42486  H        168.5830   91.8780   44.5720 H     9829  MOL9829     0.2052
  42487  H        168.9030   91.9260   46.1370 H     9829  MOL9829     0.2052
  42488  O         81.9770   90.4660   27.9250 O.3   9830  MOL9830    -0.4105
  42489  H         81.7960   91.2590   27.3780 H     9830  MOL9830     0.2052
  42490  H         81.5740   89.6800   27.4730 H     9830  MOL9830     0.2052
  42491  O        164.1480   61.3020  104.8200 O.3   9831  MOL9831    -0.4105
  42492  H        163.5870   60.5360  104.5780 H     9831  MOL9831     0.2052
  42493  H        165.0960   61.0520  104.6700 H     9831  MOL9831     0.2052
  42494  O         22.4330   64.2120   96.6790 O.3   9832  MOL9832    -0.4105
  42495  H         21.8560   64.9430   96.3740 H     9832  MOL9832     0.2052
  42496  H         23.3330   64.3400   96.2820 H     9832  MOL9832     0.2052
  42497  O         65.8980   31.3640  251.0690 O.3   9833  MOL9833    -0.4105
  42498  H         66.4540   30.8780  250.4240 H     9833  MOL9833     0.2052
  42499  H         65.0940   30.8150  251.2600 H     9833  MOL9833     0.2052
  42500  O         62.4740   40.0650  254.1030 O.3   9834  MOL9834    -0.4105
  42501  H         63.2390   40.3520  253.5630 H     9834  MOL9834     0.2052
  42502  H         62.3420   39.0920  253.9620 H     9834  MOL9834     0.2052
  42503  O         53.4000  196.4520  124.6220 O.3   9835  MOL9835    -0.4105
  42504  H         53.4020  195.4810  124.4900 H     9835  MOL9835     0.2052
  42505  H         52.5920  196.6930  125.1440 H     9835  MOL9835     0.2052
  42506  O        103.5010  109.5560  248.1070 O.3   9836  MOL9836    -0.4105
  42507  H        103.3790  108.6000  248.2860 H     9836  MOL9836     0.2052
  42508  H        102.8850  109.8160  247.3740 H     9836  MOL9836     0.2052
  42509  O        191.9670  141.1360  249.4210 O.3   9837  MOL9837    -0.4105
  42510  H        192.2590  140.2120  249.5660 H     9837  MOL9837     0.2052
  42511  H        192.6500  141.5940  248.8660 H     9837  MOL9837     0.2052
  42512  O         79.4570   88.6900  172.4560 O.3   9838  MOL9838    -0.4105
  42513  H         78.8920   88.1860  173.0780 H     9838  MOL9838     0.2052
  42514  H         79.5770   88.1460  171.6350 H     9838  MOL9838     0.2052
  42515  O         67.1350  107.7280   71.3320 O.3   9839  MOL9839    -0.4105
  42516  H         67.3470  106.7850   71.4910 H     9839  MOL9839     0.2052
  42517  H         66.5220  108.0340   72.0510 H     9839  MOL9839     0.2052
  42518  O        196.6020   32.9370  141.5930 O.3   9840  MOL9840    -0.4105
  42519  H        197.3770   32.3370  141.5920 H     9840  MOL9840     0.2052
  42520  H        195.7790   32.3810  141.6070 H     9840  MOL9840     0.2052
  42521  O         39.4970   88.5520  237.5740 O.3   9841  MOL9841    -0.4105
  42522  H         38.7540   89.1580  237.3710 H     9841  MOL9841     0.2052
  42523  H         39.3470   88.1680  238.4770 H     9841  MOL9841     0.2052
  42524  O         87.0690  185.7560  238.4930 O.3   9842  MOL9842    -0.4105
  42525  H         87.4270  186.6620  238.3880 H     9842  MOL9842     0.2052
  42526  H         86.1210  185.8270  238.7770 H     9842  MOL9842     0.2052
  42527  O         95.0820    6.2070  281.1100 O.3   9843  MOL9843    -0.4105
  42528  H         94.8620    7.1520  281.2460 H     9843  MOL9843     0.2052
  42529  H         94.7220    5.6920  281.8780 H     9843  MOL9843     0.2052
  42530  O         26.8440  138.3980   45.7710 O.3   9844  MOL9844    -0.4105
  42531  H         26.6860  138.3410   44.8060 H     9844  MOL9844     0.2052
  42532  H         27.6340  138.9780   45.9230 H     9844  MOL9844     0.2052
  42533  O         20.7820   63.5510  100.0030 O.3   9845  MOL9845    -0.4105
  42534  H         20.4620   64.3770   99.5830 H     9845  MOL9845     0.2052
  42535  H         21.6300   63.2870   99.5620 H     9845  MOL9845     0.2052
  42536  O         81.3430  147.1030   44.3690 O.3   9846  MOL9846    -0.4105
  42537  H         81.3300  147.3790   43.4280 H     9846  MOL9846     0.2052
  42538  H         80.4820  147.3720   44.7830 H     9846  MOL9846     0.2052
  42539  O        103.2310  108.5390   37.2070 O.3   9847  MOL9847    -0.4105
  42540  H        103.1430  108.7940   38.1490 H     9847  MOL9847     0.2052
  42541  H        104.0980  108.0700   37.0920 H     9847  MOL9847     0.2052
  42542  O        141.5770    8.0260  113.4040 O.3   9848  MOL9848    -0.4105
  42543  H        141.5250    8.9810  113.6160 H     9848  MOL9848     0.2052
  42544  H        142.4560    7.8510  112.9770 H     9848  MOL9848     0.2052
  42545  O        138.5350  178.8270   83.8320 O.3   9849  MOL9849    -0.4105
  42546  H        139.0060  179.6420   83.5610 H     9849  MOL9849     0.2052
  42547  H        139.1660  178.0640   83.7590 H     9849  MOL9849     0.2052
  42548  O        183.9720   95.1760   71.7290 O.3   9850  MOL9850    -0.4105
  42549  H        184.3520   94.4830   71.1490 H     9850  MOL9850     0.2052
  42550  H        183.1920   95.5750   71.2650 H     9850  MOL9850     0.2052
  42551  O        197.4870  116.6970    7.5940 O.3   9851  MOL9851    -0.4105
  42552  H        198.4230  116.9640    7.7060 H     9851  MOL9851     0.2052
  42553  H        196.9360  117.5190    7.5260 H     9851  MOL9851     0.2052
  42554  O        171.2100  160.2350   87.6020 O.3   9852  MOL9852    -0.4105
  42555  H        171.5770  159.3270   87.6150 H     9852  MOL9852     0.2052
  42556  H        170.4200  160.2420   87.0010 H     9852  MOL9852     0.2052
  42557  O         65.1570   36.8630  259.2860 O.3   9853  MOL9853    -0.4105
  42558  H         65.9890   37.0000  258.7860 H     9853  MOL9853     0.2052
  42559  H         64.8870   35.9140  259.1840 H     9853  MOL9853     0.2052
  42560  O        141.9580   98.5420  192.8690 O.3   9854  MOL9854    -0.4105
  42561  H        141.3940   98.9550  193.5550 H     9854  MOL9854     0.2052
  42562  H        142.5240   97.8530  193.3050 H     9854  MOL9854     0.2052
  42563  O        146.5250   76.1130   68.2130 O.3   9855  MOL9855    -0.4105
  42564  H        146.9140   75.5160   68.8870 H     9855  MOL9855     0.2052
  42565  H        145.5980   75.8120   68.0300 H     9855  MOL9855     0.2052
  42566  O        159.7730  166.4230   30.2340 O.3   9856  MOL9856    -0.4105
  42567  H        160.6900  166.7100   30.4260 H     9856  MOL9856     0.2052
  42568  H        159.6560  165.5030   30.5860 H     9856  MOL9856     0.2052
  42569  O         60.7450   61.1150   72.4810 O.3   9857  MOL9857    -0.4105
  42570  H         59.7780   60.9990   72.5920 H     9857  MOL9857     0.2052
  42571  H         61.1890   60.8430   73.3260 H     9857  MOL9857     0.2052
  42572  O          1.1400  182.9470  221.6960 O.3   9858  MOL9858    -0.4105
  42573  H          1.1900  183.3750  220.8150 H     9858  MOL9858     0.2052
  42574  H          2.0550  182.6600  221.9530 H     9858  MOL9858     0.2052
  42575  O        127.2610   40.7890  251.8570 O.3   9859  MOL9859    -0.4105
  42576  H        127.0960   40.4800  252.7720 H     9859  MOL9859     0.2052
  42577  H        126.9270   41.7210  251.7790 H     9859  MOL9859     0.2052
  42578  O        142.0660   72.4300   29.6130 O.3   9860  MOL9860    -0.4105
  42579  H        142.5680   71.8020   30.1730 H     9860  MOL9860     0.2052
  42580  H        142.1710   73.3400   29.9950 H     9860  MOL9860     0.2052
  42581  O        127.4340   81.6090  284.9560 O.3   9861  MOL9861    -0.4105
  42582  H        128.1030   82.2560  284.6500 H     9861  MOL9861     0.2052
  42583  H        127.1420   81.0710  284.1750 H     9861  MOL9861     0.2052
  42584  O        193.9300  180.6820  187.6350 O.3   9862  MOL9862    -0.4105
  42585  H        193.0680  181.1480  187.6010 H     9862  MOL9862     0.2052
  42586  H        193.7550  179.7140  187.7670 H     9862  MOL9862     0.2052
  42587  O         58.9740   86.5540  258.0790 O.3   9863  MOL9863    -0.4105
  42588  H         58.1590   86.1000  258.3820 H     9863  MOL9863     0.2052
  42589  H         59.7510   85.9810  258.3080 H     9863  MOL9863     0.2052
  42590  O         45.1780  143.8690  197.7850 O.3   9864  MOL9864    -0.4105
  42591  H         46.0470  144.1070  198.1710 H     9864  MOL9864     0.2052
  42592  H         44.7530  144.6980  197.4440 H     9864  MOL9864     0.2052
  42593  O        142.9560   95.8720   51.6310 O.3   9865  MOL9865    -0.4105
  42594  H        143.5960   95.3290   52.1370 H     9865  MOL9865     0.2052
  42595  H        143.4510   96.6210   51.2080 H     9865  MOL9865     0.2052
  42596  O        128.7190   43.2980  254.6230 O.3   9866  MOL9866    -0.4105
  42597  H        128.6210   42.9410  255.5300 H     9866  MOL9866     0.2052
  42598  H        128.2860   44.1900  254.5920 H     9866  MOL9866     0.2052
  42599  O        100.2570   59.5350   18.0460 O.3   9867  MOL9867    -0.4105
  42600  H        101.1600   59.9040   17.9490 H     9867  MOL9867     0.2052
  42601  H        100.3370   58.5850   18.3220 H     9867  MOL9867     0.2052
  42602  O         27.9700  165.6460  207.7350 O.3   9868  MOL9868    -0.4105
  42603  H         28.7060  165.0420  207.9660 H     9868  MOL9868     0.2052
  42604  H         28.3400  166.3960  207.2010 H     9868  MOL9868     0.2052
  42605  O         79.9770  185.8320  232.0020 O.3   9869  MOL9869    -0.4105
  42606  H         79.5390  186.6910  231.8240 H     9869  MOL9869     0.2052
  42607  H         79.7990  185.5830  232.9460 H     9869  MOL9869     0.2052
  42608  O         99.0830  105.5100  246.4300 O.3   9870  MOL9870    -0.4105
  42609  H         98.8910  104.5640  246.6000 H     9870  MOL9870     0.2052
  42610  H         98.5030  105.8160  245.6850 H     9870  MOL9870     0.2052
  42611  O        127.3090   42.0170   56.8810 O.3   9871  MOL9871    -0.4105
  42612  H        128.1460   41.5690   57.1250 H     9871  MOL9871     0.2052
  42613  H        127.4830   42.9920   56.8250 H     9871  MOL9871     0.2052
  42614  O        172.7670  144.2410  186.0800 O.3   9872  MOL9872    -0.4105
  42615  H        173.7460  144.2680  186.0410 H     9872  MOL9872     0.2052
  42616  H        172.4280  143.9720  185.1870 H     9872  MOL9872     0.2052
  42617  O        117.8900  163.9360  211.0330 O.3   9873  MOL9873    -0.4105
  42618  H        117.1710  164.3240  211.5750 H     9873  MOL9873     0.2052
  42619  H        117.4830  163.5210  210.2290 H     9873  MOL9873     0.2052
  42620  O        119.9450   70.4790  255.7180 O.3   9874  MOL9874    -0.4105
  42621  H        119.6580   70.6720  254.8010 H     9874  MOL9874     0.2052
  42622  H        120.0790   71.3410  256.1900 H     9874  MOL9874     0.2052
  42623  O        133.4530   44.7050   71.7140 O.3   9875  MOL9875    -0.4105
  42624  H        134.2090   45.3260   71.6650 H     9875  MOL9875     0.2052
  42625  H        132.8920   44.9600   72.4920 H     9875  MOL9875     0.2052
  42626  O        170.0850  175.7700   39.1730 O.3   9876  MOL9876    -0.4105
  42627  H        170.6360  174.9600   39.1880 H     9876  MOL9876     0.2052
  42628  H        170.6900  176.5560   39.1400 H     9876  MOL9876     0.2052
  42629  O          9.2410   31.6640  258.8630 O.3   9877  MOL9877    -0.4105
  42630  H          9.8410   31.0480  259.3340 H     9877  MOL9877     0.2052
  42631  H          9.7740   32.4430  258.5580 H     9877  MOL9877     0.2052
  42632  O        185.3030  118.5520  149.8180 O.3   9878  MOL9878    -0.4105
  42633  H        184.6900  119.2680  149.5480 H     9878  MOL9878     0.2052
  42634  H        186.2050  118.9460  149.9410 H     9878  MOL9878     0.2052
  42635  O        187.4860  118.4710  208.6730 O.3   9879  MOL9879    -0.4105
  42636  H        187.7960  117.5930  208.9780 H     9879  MOL9879     0.2052
  42637  H        188.2820  119.0300  208.4750 H     9879  MOL9879     0.2052
  42638  O          6.4150  135.5880   71.8230 O.3   9880  MOL9880    -0.4105
  42639  H          5.7870  134.8910   72.1060 H     9880  MOL9880     0.2052
  42640  H          5.9920  136.1090   71.0920 H     9880  MOL9880     0.2052
  42641  O         35.0280  156.8030  227.1500 O.3   9881  MOL9881    -0.4105
  42642  H         35.7530  156.8590  227.8070 H     9881  MOL9881     0.2052
  42643  H         35.2460  157.4080  226.3950 H     9881  MOL9881     0.2052
  42644  O        159.7120  168.7240   26.7180 O.3   9882  MOL9882    -0.4105
  42645  H        160.6380  168.9660   26.9310 H     9882  MOL9882     0.2052
  42646  H        159.5410  167.8130   27.0730 H     9882  MOL9882     0.2052
  42647  O         15.8010  117.4460  137.0800 O.3   9883  MOL9883    -0.4105
  42648  H         15.0350  117.1510  137.6150 H     9883  MOL9883     0.2052
  42649  H         15.6330  117.1980  136.1340 H     9883  MOL9883     0.2052
  42650  O         81.6400  192.1590  238.8830 O.3   9884  MOL9884    -0.4105
  42651  H         81.8800  193.1090  238.8450 H     9884  MOL9884     0.2052
  42652  H         80.6600  192.0920  239.0250 H     9884  MOL9884     0.2052
  42653  O        100.9240  113.9740  249.2510 O.3   9885  MOL9885    -0.4105
  42654  H        101.6460  113.3230  249.3710 H     9885  MOL9885     0.2052
  42655  H        100.0860  113.4770  249.0620 H     9885  MOL9885     0.2052
  42656  O        120.4880  152.5490  102.3310 O.3   9886  MOL9886    -0.4105
  42657  H        120.2000  151.7550  101.8340 H     9886  MOL9886     0.2052
  42658  H        121.1400  152.2640  103.0230 H     9886  MOL9886     0.2052
  42659  O        136.5790   94.1710  191.6190 O.3   9887  MOL9887    -0.4105
  42660  H        136.0100   94.1510  192.4160 H     9887  MOL9887     0.2052
  42661  H        137.4140   93.6750  191.8200 H     9887  MOL9887     0.2052
  42662  O        175.2190  164.2930   87.6870 O.3   9888  MOL9888    -0.4105
  42663  H        175.4060  163.3320   87.6340 H     9888  MOL9888     0.2052
  42664  H        174.2720  164.4400   87.4280 H     9888  MOL9888     0.2052
  42665  O         35.2880  170.7020   70.4630 O.3   9889  MOL9889    -0.4105
  42666  H         35.4540  171.4410   69.8410 H     9889  MOL9889     0.2052
  42667  H         36.1430  170.2200   70.6060 H     9889  MOL9889     0.2052
  42668  O         59.7280   39.8630  257.3280 O.3   9890  MOL9890    -0.4105
  42669  H         60.3110   39.3710  256.7130 H     9890  MOL9890     0.2052
  42670  H         58.9180   39.3150  257.4930 H     9890  MOL9890     0.2052
  42671  O        146.9150   81.9690  169.9420 O.3   9891  MOL9891    -0.4105
  42672  H        147.7070   81.7730  169.3990 H     9891  MOL9891     0.2052
  42673  H        146.9350   82.9310  170.1830 H     9891  MOL9891     0.2052
  42674  O        188.4490  133.2290  273.2320 O.3   9892  MOL9892    -0.4105
  42675  H        189.0830  133.7220  272.6710 H     9892  MOL9892     0.2052
  42676  H        188.6780  132.2650  273.1870 H     9892  MOL9892     0.2052
  42677  O         28.5210  172.0150   15.2210 O.3   9893  MOL9893    -0.4105
  42678  H         29.4910  172.1300   15.3070 H     9893  MOL9893     0.2052
  42679  H         28.1210  172.8980   15.0090 H     9893  MOL9893     0.2052
  42680  O         58.7020  126.4250  210.2510 O.3   9894  MOL9894    -0.4105
  42681  H         59.1340  126.0960  209.4350 H     9894  MOL9894     0.2052
  42682  H         58.4220  125.6410  210.7910 H     9894  MOL9894     0.2052
  42683  O          5.5850  161.4200  202.7930 O.3   9895  MOL9895    -0.4105
  42684  H          5.5880  160.4470  202.6750 H     9895  MOL9895     0.2052
  42685  H          4.7230  161.7710  202.4500 H     9895  MOL9895     0.2052
  42686  O        117.2980  104.7970   60.2720 O.3   9896  MOL9896    -0.4105
  42687  H        117.3270  105.2410   59.3990 H     9896  MOL9896     0.2052
  42688  H        116.8990  105.4270   60.9270 H     9896  MOL9896     0.2052
  42689  O         26.6620   83.0410  234.1780 O.3   9897  MOL9897    -0.4105
  42690  H         27.1310   82.1810  234.2070 H     9897  MOL9897     0.2052
  42691  H         25.6870   82.8620  234.1580 H     9897  MOL9897     0.2052
  42692  O        173.8500  103.0010  141.9160 O.3   9898  MOL9898    -0.4105
  42693  H        174.6600  103.5540  141.9060 H     9898  MOL9898     0.2052
  42694  H        173.8920  102.4050  142.7080 H     9898  MOL9898     0.2052
  42695  O         60.7210  187.0950   99.7750 O.3   9899  MOL9899    -0.4105
  42696  H         60.7950  186.1210   99.6960 H     9899  MOL9899     0.2052
  42697  H         59.7670  187.3430   99.6600 H     9899  MOL9899     0.2052
  42698  O         96.8300  181.3930  205.0820 O.3   9900  MOL9900    -0.4105
  42699  H         97.6230  181.7710  205.5160 H     9900  MOL9900     0.2052
  42700  H         96.2450  181.0080  205.7850 H     9900  MOL9900     0.2052
  42701  O         21.1290   40.8990   24.1090 O.3   9901  MOL9901    -0.4105
  42702  H         20.5050   40.2560   23.7120 H     9901  MOL9901     0.2052
  42703  H         21.5660   41.4020   23.3730 H     9901  MOL9901     0.2052
  42704  O        117.8520   65.7720  262.8040 O.3   9902  MOL9902    -0.4105
  42705  H        117.6290   65.5690  261.8720 H     9902  MOL9902     0.2052
  42706  H        117.8200   66.7570  262.9230 H     9902  MOL9902     0.2052
  42707  O         87.0930  188.7640  230.0750 O.3   9903  MOL9903    -0.4105
  42708  H         86.3660  189.3960  230.2570 H     9903  MOL9903     0.2052
  42709  H         86.9510  187.9580  230.6370 H     9903  MOL9903     0.2052
  42710  O        162.2950  166.6520  288.4760 O.3   9904  MOL9904    -0.4105
  42711  H        163.0750  166.0780  288.6270 H     9904  MOL9904     0.2052
  42712  H        162.6080  167.5920  288.4170 H     9904  MOL9904     0.2052
  42713  O        112.3110   85.5450   49.2900 O.3   9905  MOL9905    -0.4105
  42714  H        111.3580   85.3290   49.3620 H     9905  MOL9905     0.2052
  42715  H        112.8190   84.6940   49.2380 H     9905  MOL9905     0.2052
  42716  O         35.2910  126.2130   66.2780 O.3   9906  MOL9906    -0.4105
  42717  H         34.4220  125.7610   66.2370 H     9906  MOL9906     0.2052
  42718  H         35.4520  126.4920   67.2170 H     9906  MOL9906     0.2052
  42719  O          5.9070   65.2680  174.7330 O.3   9907  MOL9907    -0.4105
  42720  H          4.9540   65.2780  174.9620 H     9907  MOL9907     0.2052
  42721  H          6.1110   64.4050  174.2870 H     9907  MOL9907     0.2052
  42722  O        185.7010   56.6500  158.9780 O.3   9908  MOL9908    -0.4105
  42723  H        186.4870   57.2360  158.9470 H     9908  MOL9908     0.2052
  42724  H        185.5300   56.4120  159.9260 H     9908  MOL9908     0.2052
  42725  O        104.2210   29.8470   90.2110 O.3   9909  MOL9909    -0.4105
  42726  H        104.5560   29.3920   91.0120 H     9909  MOL9909     0.2052
  42727  H        103.2650   30.0690   90.3570 H     9909  MOL9909     0.2052
  42728  O        177.5710  105.5880  115.0330 O.3   9910  MOL9910    -0.4105
  42729  H        178.4120  105.0930  114.9480 H     9910  MOL9910     0.2052
  42730  H        177.7550  106.5470  114.8550 H     9910  MOL9910     0.2052
  42731  O        170.9900  145.3250  207.1340 O.3   9911  MOL9911    -0.4105
  42732  H        170.1540  145.8370  207.1260 H     9911  MOL9911     0.2052
  42733  H        171.7350  145.9460  206.9240 H     9911  MOL9911     0.2052
  42734  O        179.7120   92.5120   30.9920 O.3   9912  MOL9912    -0.4105
  42735  H        179.1410   93.2170   31.3620 H     9912  MOL9912     0.2052
  42736  H        179.5500   92.4620   30.0150 H     9912  MOL9912     0.2052
  42737  O        141.5630  194.6550  126.4720 O.3   9913  MOL9913    -0.4105
  42738  H        141.8080  193.7080  126.4090 H     9913  MOL9913     0.2052
  42739  H        142.3930  195.1810  126.6100 H     9913  MOL9913     0.2052
  42740  O         60.7880   82.0030  260.4470 O.3   9914  MOL9914    -0.4105
  42741  H         60.5630   81.0730  260.6600 H     9914  MOL9914     0.2052
  42742  H         61.7750   82.0980  260.4790 H     9914  MOL9914     0.2052
  42743  O         23.1850  162.6600   17.5320 O.3   9915  MOL9915    -0.4105
  42744  H         23.2640  162.6890   16.5560 H     9915  MOL9915     0.2052
  42745  H         22.5310  161.9520   17.7690 H     9915  MOL9915     0.2052
  42746  O         95.7880   93.6400   25.2750 O.3   9916  MOL9916    -0.4105
  42747  H         94.8750   93.9320   25.4830 H     9916  MOL9916     0.2052
  42748  H         96.2200   94.3410   24.7220 H     9916  MOL9916     0.2052
  42749  O         44.5510   76.3080  298.6510 O.3   9917  MOL9917    -0.4105
  42750  H         43.7230   76.8320  298.6300 H     9917  MOL9917     0.2052
  42751  H         45.3070   76.9300  298.8130 H     9917  MOL9917     0.2052
  42752  O         29.6410  122.2790  221.1230 O.3   9918  MOL9918    -0.4105
  42753  H         29.1320  122.6410  220.3680 H     9918  MOL9918     0.2052
  42754  H         30.4720  122.8110  221.2210 H     9918  MOL9918     0.2052
  42755  O        176.4520  136.8790   59.2260 O.3   9919  MOL9919    -0.4105
  42756  H        175.5580  136.9260   59.6250 H     9919  MOL9919     0.2052
  42757  H        176.5820  135.9660   58.8610 H     9919  MOL9919     0.2052
  42758  O        168.3350   67.1170   44.6340 O.3   9920  MOL9920    -0.4105
  42759  H        168.2240   68.0180   45.0040 H     9920  MOL9920     0.2052
  42760  H        167.5190   66.8920   44.1150 H     9920  MOL9920     0.2052
  42761  O         16.4860  151.4630  280.8860 O.3   9921  MOL9921    -0.4105
  42762  H         15.7500  152.1050  280.9590 H     9921  MOL9921     0.2052
  42763  H         17.3410  151.9670  280.8970 H     9921  MOL9921     0.2052
  42764  O         60.9700  124.7010   37.6530 O.3   9922  MOL9922    -0.4105
  42765  H         60.0400  125.0080   37.6540 H     9922  MOL9922     0.2052
  42766  H         61.5610  125.4990   37.6510 H     9922  MOL9922     0.2052
  42767  O        190.2250  180.4080  191.2590 O.3   9923  MOL9923    -0.4105
  42768  H        189.6550  181.1980  191.1510 H     9923  MOL9923     0.2052
  42769  H        189.6440  179.6330  191.4770 H     9923  MOL9923     0.2052
  42770  O         45.6210   10.0630  207.8320 O.3   9924  MOL9924    -0.4105
  42771  H         46.5430    9.7320  207.8330 H     9924  MOL9924     0.2052
  42772  H         45.6150   10.9650  208.2460 H     9924  MOL9924     0.2052
  42773  O        163.9170   41.1620   16.6260 O.3   9925  MOL9925    -0.4105
  42774  H        163.6440   41.8300   15.9620 H     9925  MOL9925     0.2052
  42775  H        163.1080   40.6680   16.9200 H     9925  MOL9925     0.2052
  42776  O         18.7410   49.7940  232.9630 O.3   9926  MOL9926    -0.4105
  42777  H         19.3670   49.9570  233.6990 H     9926  MOL9926     0.2052
  42778  H         17.8510   49.5930  233.3510 H     9926  MOL9926     0.2052
  42779  O         76.8710   82.0150  261.9570 O.3   9927  MOL9927    -0.4105
  42780  H         75.9350   82.0790  262.2420 H     9927  MOL9927     0.2052
  42781  H         77.2830   82.9140  262.0390 H     9927  MOL9927     0.2052
  42782  O        109.3720  153.8100  202.0090 O.3   9928  MOL9928    -0.4105
  42783  H        108.5250  153.4500  201.6720 H     9928  MOL9928     0.2052
  42784  H        110.0960  153.1740  201.7720 H     9928  MOL9928     0.2052
  42785  O        178.5790  119.2510  200.3820 O.3   9929  MOL9929    -0.4105
  42786  H        179.0760  119.7280  199.6840 H     9929  MOL9929     0.2052
  42787  H        177.6250  119.5200  200.3220 H     9929  MOL9929     0.2052
  42788  O        111.2230   83.4370   51.6890 O.3   9930  MOL9930    -0.4105
  42789  H        110.3620   83.0010   51.8600 H     9930  MOL9930     0.2052
  42790  H        111.9050   82.7310   51.5420 H     9930  MOL9930     0.2052
  42791  O         33.4410  142.9630   22.4300 O.3   9931  MOL9931    -0.4105
  42792  H         34.0120  142.9080   21.6360 H     9931  MOL9931     0.2052
  42793  H         32.5290  142.6620   22.1790 H     9931  MOL9931     0.2052
  42794  O        103.9320    3.3830  294.2840 O.3   9932  MOL9932    -0.4105
  42795  H        104.4330    4.2140  294.1410 H     9932  MOL9932     0.2052
  42796  H        103.1610    3.5830  294.8760 H     9932  MOL9932     0.2052
  42797  O        124.9750   64.8790  224.7560 O.3   9933  MOL9933    -0.4105
  42798  H        124.4820   64.0750  224.4870 H     9933  MOL9933     0.2052
  42799  H        125.2080   64.7940  225.7170 H     9933  MOL9933     0.2052
  42800  O         63.5040  163.3040  196.5540 O.3   9934  MOL9934    -0.4105
  42801  H         64.3110  162.7790  196.3750 H     9934  MOL9934     0.2052
  42802  H         62.7170  162.7070  196.4590 H     9934  MOL9934     0.2052
  42803  O        136.4640  107.0590   65.4700 O.3   9935  MOL9935    -0.4105
  42804  H        135.9730  106.2100   65.4720 H     9935  MOL9935     0.2052
  42805  H        137.3610  106.8980   65.0770 H     9935  MOL9935     0.2052
  42806  O         56.4230   39.4900  244.5060 O.3   9936  MOL9936    -0.4105
  42807  H         57.2210   39.1710  244.0330 H     9936  MOL9936     0.2052
  42808  H         56.4370   40.4820  244.5050 H     9936  MOL9936     0.2052
  42809  O         77.4600  150.5610  257.4130 O.3   9937  MOL9937    -0.4105
  42810  H         77.2750  149.9750  258.1770 H     9937  MOL9937     0.2052
  42811  H         76.7670  151.2720  257.3930 H     9937  MOL9937     0.2052
  42812  O         46.5570  154.3230   95.3390 O.3   9938  MOL9938    -0.4105
  42813  H         47.5090  154.1560   95.1720 H     9938  MOL9938     0.2052
  42814  H         46.1390  153.4710   95.6290 H     9938  MOL9938     0.2052
  42815  O        188.9330  118.5190  147.3370 O.3   9939  MOL9939    -0.4105
  42816  H        188.0160  118.7890  147.1170 H     9939  MOL9939     0.2052
  42817  H        189.4970  119.3350  147.3690 H     9939  MOL9939     0.2052
  42818  O        164.0030   36.5280   53.8380 O.3   9940  MOL9940    -0.4105
  42819  H        164.4790   37.3810   53.9130 H     9940  MOL9940     0.2052
  42820  H        163.0300   36.7070   53.9190 H     9940  MOL9940     0.2052
  42821  O        157.4780   41.4080  137.2100 O.3   9941  MOL9941    -0.4105
  42822  H        157.1960   40.8100  136.4860 H     9941  MOL9941     0.2052
  42823  H        158.3570   41.7990  136.9650 H     9941  MOL9941     0.2052
  42824  O         49.2750   79.8620   58.8060 O.3   9942  MOL9942    -0.4105
  42825  H         49.7900   79.2560   59.3780 H     9942  MOL9942     0.2052
  42826  H         48.8510   80.5490   59.3830 H     9942  MOL9942     0.2052
  42827  O        145.5040  194.7820  124.6110 O.3   9943  MOL9943    -0.4105
  42828  H        144.5270  194.7580  124.5440 H     9943  MOL9943     0.2052
  42829  H        145.8360  193.8470  124.6450 H     9943  MOL9943     0.2052
  42830  O        121.7400   48.8520  133.1630 O.3   9944  MOL9944    -0.4105
  42831  H        121.8110   49.5070  133.8890 H     9944  MOL9944     0.2052
  42832  H        122.5900   48.8610  132.6510 H     9944  MOL9944     0.2052
  42833  O        144.7210   83.6210  166.1040 O.3   9945  MOL9945    -0.4105
  42834  H        145.5320   83.2920  165.6630 H     9945  MOL9945     0.2052
  42835  H        144.8320   84.5930  166.2730 H     9945  MOL9945     0.2052
  42836  O        196.4220   41.9650  156.7350 O.3   9946  MOL9946    -0.4105
  42837  H        196.7540   42.1760  155.8370 H     9946  MOL9946     0.2052
  42838  H        196.3210   42.8150  157.2370 H     9946  MOL9946     0.2052
  42839  O         65.3900  173.3520  185.4140 O.3   9947  MOL9947    -0.4105
  42840  H         65.2770  174.3210  185.5040 H     9947  MOL9947     0.2052
  42841  H         66.3620  173.1540  185.3860 H     9947  MOL9947     0.2052
  42842  O         16.0150  183.8540  284.6040 O.3   9948  MOL9948    -0.4105
  42843  H         16.9720  184.0650  284.6160 H     9948  MOL9948     0.2052
  42844  H         15.9150  182.8680  284.5770 H     9948  MOL9948     0.2052
  42845  O         45.4360    7.7080  227.5150 O.3   9949  MOL9949    -0.4105
  42846  H         46.0840    7.4140  226.8410 H     9949  MOL9949     0.2052
  42847  H         44.6790    7.0660  227.5180 H     9949  MOL9949     0.2052
  42848  O        141.1960  192.5540  123.1260 O.3   9950  MOL9950    -0.4105
  42849  H        140.3060  192.3100  122.7980 H     9950  MOL9950     0.2052
  42850  H        141.6850  191.7190  123.3470 H     9950  MOL9950     0.2052
  42851  O          6.1000   83.8360   10.7510 O.3   9951  MOL9951    -0.4105
  42852  H          5.4640   84.0920   11.4510 H     9951  MOL9951     0.2052
  42853  H          6.5900   83.0290   11.0560 H     9951  MOL9951     0.2052
  42854  O         43.0200   69.4370  188.7400 O.3   9952  MOL9952    -0.4105
  42855  H         43.5850   68.8320  188.2150 H     9952  MOL9952     0.2052
  42856  H         43.3460   70.3640  188.6020 H     9952  MOL9952     0.2052
  42857  O         24.1410  125.1380  292.8000 O.3   9953  MOL9953    -0.4105
  42858  H         25.1170  125.1800  292.8810 H     9953  MOL9953     0.2052
  42859  H         23.8800  125.5850  291.9530 H     9953  MOL9953     0.2052
  42860  O        125.5170   90.4810  270.3560 O.3   9954  MOL9954    -0.4105
  42861  H        125.8170   89.7590  270.9470 H     9954  MOL9954     0.2052
  42862  H        124.5310   90.5590  270.4370 H     9954  MOL9954     0.2052
  42863  O        116.6490   70.9050  253.0810 O.3   9955  MOL9955    -0.4105
  42864  H        116.7880   71.2940  252.1920 H     9955  MOL9955     0.2052
  42865  H        116.0340   71.4970  253.5860 H     9955  MOL9955     0.2052
  42866  O         69.8310  135.0090   58.3820 O.3   9956  MOL9956    -0.4105
  42867  H         69.6830  135.9720   58.4880 H     9956  MOL9956     0.2052
  42868  H         68.9570  134.5490   58.4790 H     9956  MOL9956     0.2052
  42869  O         12.9040   34.2780  198.5040 O.3   9957  MOL9957    -0.4105
  42870  H         13.5470   34.5560  199.1900 H     9957  MOL9957     0.2052
  42871  H         12.0050   34.5980  198.7740 H     9957  MOL9957     0.2052
  42872  O         32.7260   15.7770   12.6080 O.3   9958  MOL9958    -0.4105
  42873  H         33.2390   15.0290   12.2370 H     9958  MOL9958     0.2052
  42874  H         32.5570   15.5920   13.5680 H     9958  MOL9958     0.2052
  42875  O         94.8570   24.0010  234.5830 O.3   9959  MOL9959    -0.4105
  42876  H         94.5610   24.1180  233.6560 H     9959  MOL9959     0.2052
  42877  H         95.0990   24.8920  234.9460 H     9959  MOL9959     0.2052
  42878  O        119.8400  153.0110   47.8180 O.3   9960  MOL9960    -0.4105
  42879  H        120.5860  152.6380   48.3320 H     9960  MOL9960     0.2052
  42880  H        119.7420  153.9680   48.0620 H     9960  MOL9960     0.2052
  42881  O         18.2800  115.1840  136.0510 O.3   9961  MOL9961    -0.4105
  42882  H         17.5720  114.9780  136.6970 H     9961  MOL9961     0.2052
  42883  H         17.9800  114.8810  135.1550 H     9961  MOL9961     0.2052
  42884  O         22.1310   34.3590  100.6440 O.3   9962  MOL9962    -0.4105
  42885  H         22.1260   35.3150  100.8580 H     9962  MOL9962     0.2052
  42886  H         21.3440   33.9390  101.0780 H     9962  MOL9962     0.2052
  42887  O        108.2720  149.8090  193.9390 O.3   9963  MOL9963    -0.4105
  42888  H        107.9550  148.9320  193.6370 H     9963  MOL9963     0.2052
  42889  H        109.2640  149.8040  193.9210 H     9963  MOL9963     0.2052
  42890  O        167.1900  100.1240  201.4120 O.3   9964  MOL9964    -0.4105
  42891  H        166.4540   99.5130  201.2000 H     9964  MOL9964     0.2052
  42892  H        167.6140  100.4070  200.5600 H     9964  MOL9964     0.2052
  42893  O         19.5250   53.4700  176.2940 O.3   9965  MOL9965    -0.4105
  42894  H         19.3290   54.3710  176.6260 H     9965  MOL9965     0.2052
  42895  H         18.7190   52.9070  176.4280 H     9965  MOL9965     0.2052
  42896  O         28.8480   87.5940  104.9590 O.3   9966  MOL9966    -0.4105
  42897  H         29.0470   88.5530  104.9610 H     9966  MOL9966     0.2052
  42898  H         28.0000   87.4520  105.4540 H     9966  MOL9966     0.2052
  42899  O        138.9040   17.7670   20.9660 O.3   9967  MOL9967    -0.4105
  42900  H        137.9340   17.9090   20.9590 H     9967  MOL9967     0.2052
  42901  H        139.3480   18.6540   20.9490 H     9967  MOL9967     0.2052
  42902  O         34.5760  115.9010   74.2980 O.3   9968  MOL9968    -0.4105
  42903  H         33.6170  115.7040   74.3430 H     9968  MOL9968     0.2052
  42904  H         34.7780  116.6140   74.9590 H     9968  MOL9968     0.2052
  42905  O         43.5560  141.5230  189.0180 O.3   9969  MOL9969    -0.4105
  42906  H         44.2920  140.9740  189.3620 H     9969  MOL9969     0.2052
  42907  H         43.8920  142.4480  188.8920 H     9969  MOL9969     0.2052
  42908  O         62.2280  106.7810  252.6810 O.3   9970  MOL9970    -0.4105
  42909  H         62.2460  107.7360  252.4650 H     9970  MOL9970     0.2052
  42910  H         63.1580  106.4860  252.8620 H     9970  MOL9970     0.2052
  42911  O        141.6620  196.4350  123.5680 O.3   9971  MOL9971    -0.4105
  42912  H        141.8050  195.4680  123.5000 H     9971  MOL9971     0.2052
  42913  H        142.5430  196.8710  123.7010 H     9971  MOL9971     0.2052
  42914  O        114.3810   89.1180  253.9510 O.3   9972  MOL9972    -0.4105
  42915  H        114.7110   88.1950  253.9680 H     9972  MOL9972     0.2052
  42916  H        115.1640   89.7260  253.9060 H     9972  MOL9972     0.2052
  42917  O        192.8470  116.4750  210.0730 O.3   9973  MOL9973    -0.4105
  42918  H        192.2720  117.2690  210.0570 H     9973  MOL9973     0.2052
  42919  H        192.2650  115.6710  210.0520 H     9973  MOL9973     0.2052
  42920  O        197.9960  114.4810    5.2400 O.3   9974  MOL9974    -0.4105
  42921  H        198.7420  115.1020    5.3730 H     9974  MOL9974     0.2052
  42922  H        197.1650  115.0130    5.1290 H     9974  MOL9974     0.2052
  42923  O        197.1460   13.8060   19.9040 O.3   9975  MOL9975    -0.4105
  42924  H        196.3160   14.1760   20.2710 H     9975  MOL9975     0.2052
  42925  H        197.2080   12.8540   20.1770 H     9975  MOL9975     0.2052
  42926  O         19.0440   78.8610  183.5880 O.3   9976  MOL9976    -0.4105
  42927  H         19.4880   79.0660  184.4370 H     9976  MOL9976     0.2052
  42928  H         18.1660   79.3230  183.5780 H     9976  MOL9976     0.2052
  42929  O         67.0150   34.7410  254.4160 O.3   9977  MOL9977    -0.4105
  42930  H         67.7160   34.5480  253.7590 H     9977  MOL9977     0.2052
  42931  H         66.4010   33.9610  254.4530 H     9977  MOL9977     0.2052
  42932  O        124.1420   85.7820  280.8890 O.3   9978  MOL9978    -0.4105
  42933  H        124.6810   86.3240  280.2760 H     9978  MOL9978     0.2052
  42934  H        123.8520   84.9650  280.4080 H     9978  MOL9978     0.2052
  42935  O         54.9740   38.9610  251.4950 O.3   9979  MOL9979    -0.4105
  42936  H         55.5780   38.3140  251.0740 H     9979  MOL9979     0.2052
  42937  H         55.3360   39.8710  251.3380 H     9979  MOL9979     0.2052
  42938  O        178.7310   91.3110   26.8070 O.3   9980  MOL9980    -0.4105
  42939  H        178.3190   92.0430   27.3110 H     9980  MOL9980     0.2052
  42940  H        178.4070   91.3580   25.8700 H     9980  MOL9980     0.2052
  42941  O        155.2730   13.2640  205.0460 O.3   9981  MOL9981    -0.4105
  42942  H        155.0410   14.2160  205.0780 H     9981  MOL9981     0.2052
  42943  H        154.4390   12.7370  205.1540 H     9981  MOL9981     0.2052
  42944  O        179.2730   37.6140  254.0630 O.3   9982  MOL9982    -0.4105
  42945  H        179.9650   38.2330  253.7500 H     9982  MOL9982     0.2052
  42946  H        178.4960   38.1480  254.3730 H     9982  MOL9982     0.2052
  42947  O         73.4600   78.1870  262.3670 O.3   9983  MOL9983    -0.4105
  42948  H         72.5400   78.3550  262.6610 H     9983  MOL9983     0.2052
  42949  H         73.9650   79.0390  262.4270 H     9983  MOL9983     0.2052
  42950  O        126.7270  163.7720   26.4320 O.3   9984  MOL9984    -0.4105
  42951  H        126.0760  163.1760   26.8580 H     9984  MOL9984     0.2052
  42952  H        127.6060  163.6390   26.8730 H     9984  MOL9984     0.2052
  42953  O         63.2080   25.7020  173.3570 O.3   9985  MOL9985    -0.4105
  42954  H         63.9940   25.1360  173.2040 H     9985  MOL9985     0.2052
  42955  H         63.0970   25.8200  174.3350 H     9985  MOL9985     0.2052
  42956  O         90.5730  111.1140  244.6430 O.3   9986  MOL9986    -0.4105
  42957  H         90.4380  110.1630  244.4480 H     9986  MOL9986     0.2052
  42958  H         90.8190  111.2030  245.6000 H     9986  MOL9986     0.2052
  42959  O         75.8020   27.3350  281.6700 O.3   9987  MOL9987    -0.4105
  42960  H         76.1810   27.4630  280.7750 H     9987  MOL9987     0.2052
  42961  H         75.1850   28.0900  281.8570 H     9987  MOL9987     0.2052
  42962  O         18.3830   64.5970   66.4360 O.3   9988  MOL9988    -0.4105
  42963  H         17.4700   64.9540   66.4350 H     9988  MOL9988     0.2052
  42964  H         19.0130   65.3580   66.5320 H     9988  MOL9988     0.2052
  42965  O        144.0950   34.4260   75.5730 O.3   9989  MOL9989    -0.4105
  42966  H        144.8210   35.0830   75.5200 H     9989  MOL9989     0.2052
  42967  H        143.5280   34.6530   76.3550 H     9989  MOL9989     0.2052
  42968  O        139.8270   39.3960  137.8310 O.3   9990  MOL9990    -0.4105
  42969  H        140.5890   39.3810  137.2140 H     9990  MOL9990     0.2052
  42970  H        139.2610   40.1790  137.6060 H     9990  MOL9990     0.2052
  42971  O         17.8220  172.8320   57.2920 O.3   9991  MOL9991    -0.4105
  42972  H         18.4880  173.5250   57.1010 H     9991  MOL9991     0.2052
  42973  H         17.3280  173.0930   58.1120 H     9991  MOL9991     0.2052
  42974  O         16.1800   58.2950   64.3150 O.3   9992  MOL9992    -0.4105
  42975  H         15.5310   59.0270   64.3560 H     9992  MOL9992     0.2052
  42976  H         17.0850   58.6730   64.4680 H     9992  MOL9992     0.2052
  42977  O        120.4430  151.9090  132.3510 O.3   9993  MOL9993    -0.4105
  42978  H        120.4590  150.9400  132.2070 H     9993  MOL9993     0.2052
  42979  H        119.4960  152.2070  132.3550 H     9993  MOL9993     0.2052
  42980  O         85.2990  151.5580  262.3790 O.3   9994  MOL9994    -0.4105
  42981  H         85.9770  150.8530  262.4420 H     9994  MOL9994     0.2052
  42982  H         84.4170  151.1610  262.6010 H     9994  MOL9994     0.2052
  42983  O        179.3310  123.7570  254.9080 O.3   9995  MOL9995    -0.4105
  42984  H        178.7980  124.1460  254.1840 H     9995  MOL9995     0.2052
  42985  H        179.5100  122.8070  254.6860 H     9995  MOL9995     0.2052
  42986  O        187.5630  182.6160  104.4110 O.3   9996  MOL9996    -0.4105
  42987  H        187.9870  182.2560  105.2180 H     9996  MOL9996     0.2052
  42988  H        186.8050  182.0240  104.1670 H     9996  MOL9996     0.2052
  42989  O        183.7380  159.1330   92.2540 O.3   9997  MOL9997    -0.4105
  42990  H        182.7920  159.1170   91.9970 H     9997  MOL9997     0.2052
  42991  H        184.0530  160.0730   92.2230 H     9997  MOL9997     0.2052
  42992  O         10.1530   22.7800  113.5800 O.3   9998  MOL9998    -0.4105
  42993  H         10.6920   23.5610  113.8240 H     9998  MOL9998     0.2052
  42994  H          9.1950   23.0230  113.6730 H     9998  MOL9998     0.2052
  42995  O         35.4920  145.6360   24.0240 O.3   9999  MOL9999    -0.4105
  42996  H         36.0170  145.5210   23.2040 H     9999  MOL9999     0.2052
  42997  H         34.5550  145.3700   23.8320 H     9999  MOL9999     0.2052
  42998  O        160.5400   32.7580  185.4600 O.3     1  MOL1       -0.4105
  42999  H        161.1120   33.2390  184.8270 H       1  MOL1        0.2052
  43000  H        159.6980   33.2710  185.5690 H       1  MOL1        0.2052
@<TRIPOS>BOND
     1     1     3    2
     2     2     3    1
     3     2   285    1
     4     3     4    1
     5     4     5    1
     6     4   286    1
     7     4   287    1
     8     5     6    1
     9     5   288    1
    10     5   289    1
    11     6     7    1
    12     6   290    1
    13     6   291    1
    14     7    31    1
    15     7   292    1
    16     7   293    1
    17     8     9    1
    18     8    63    2
    19     9    10    1
    20     9   294    1
    21     9   295    1
    22    10    31    1
    23    10   296    1
    24    10   297    1
    25    11    12    1
    26    11    15    2
    27    11    16    1
    28    12    13    1
    29    12    14    1
    30    12    94    1
    31    13    93    1
    32    13   298    1
    33    13   299    1
    34    14   300    1
    35    14   301    1
    36    14   302    1
    37    16    17    1
    38    17    18    1
    39    17   303    1
    40    17   304    1
    41    18    19    1
    42    18    29    1
    43    18   305    1
    44    19   306    1
    45    19   307    1
    46    19   308    1
    47    20    21    1
    48    20    24    1
    49    20    75    1
    50    20   309    1
    51    21    22    1
    52    21   310    1
    53    21   311    1
    54    22    23    1
    55    22   312    1
    56    22   313    1
    57    23    53    1
    58    24    25    1
    59    24   314    1
    60    24   315    1
    61    25    26    1
    62    25   316    1
    63    25   317    1
    64    26    27    1
    65    26   318    1
    66    26   319    1
    67    27    28    1
    68    27   320    1
    69    27   321    1
    70    28    29    1
    71    28    30    2
    72    31   147    1
    73    31   322    1
    74    32    33    1
    75    32    36    2
    76    32    37    1
    77    33    34    2
    78    33    35    1
    79    34   323    1
    80    34   324    1
    81    35   325    1
    82    35   326    1
    83    35   327    1
    84    37    38    1
    85    38    39    1
    86    38   328    1
    87    38   329    1
    88    39    40    1
    89    39    50    1
    90    39   330    1
    91    40   331    1
    92    40   332    1
    93    40   333    1
    94    41    42    1
    95    41    45    1
    96    41    53    1
    97    41   334    1
    98    42    43    1
    99    42   335    1
   100    42   336    1
   101    43    44    1
   102    43   337    1
   103    43   338    1
   104    44    52    1
   105    45    46    1
   106    45   339    1
   107    45   340    1
   108    46    47    1
   109    46   341    1
   110    46   342    1
   111    47    48    1
   112    47   343    1
   113    47   344    1
   114    48    49    1
   115    48   345    1
   116    48   346    1
   117    49    50    1
   118    49    51    2
   119    52   347    1
   120    52   348    1
   121    52   349    1
   122    54    55    1
   123    54    58    2
   124    54    59    1
   125    55    56    2
   126    55    57    1
   127    56   350    1
   128    56   351    1
   129    57   352    1
   130    57   353    1
   131    57   354    1
   132    59    60    1
   133    60    61    1
   134    60   355    1
   135    60   356    1
   136    61    62    1
   137    61    73    1
   138    61   357    1
   139    62   358    1
   140    62   359    1
   141    62   360    1
   142    63    64    1
   143    64    65    1
   144    64    68    1
   145    64   361    1
   146    65    66    1
   147    65   362    1
   148    65   363    1
   149    66    67    1
   150    66   364    1
   151    66   365    1
   152    67    75    1
   153    68    69    1
   154    68   366    1
   155    68   367    1
   156    69    70    1
   157    69   368    1
   158    69   369    1
   159    70    71    1
   160    70   370    1
   161    70   371    1
   162    71    72    1
   163    71   372    1
   164    71   373    1
   165    72    73    1
   166    72    74    2
   167    76    77    1
   168    76    87    1
   169    76   374    1
   170    76   375    1
   171    77    78    1
   172    77   376    1
   173    77   377    1
   174    78    79    1
   175    78   378    1
   176    78   379    1
   177    79    80    1
   178    79   380    1
   179    79   381    1
   180    80    81    1
   181    80   382    1
   182    80   383    1
   183    81    82    1
   184    81   384    1
   185    81   385    1
   186    82    83    1
   187    82   386    1
   188    82   387    1
   189    83    84    1
   190    83   388    1
   191    83   389    1
   192    84    85    1
   193    84   390    1
   194    84   391    1
   195    85    86    1
   196    85   392    1
   197    85   393    1
   198    86    90    1
   199    86   394    1
   200    86   395    1
   201    87   396    1
   202    87   397    1
   203    87   398    1
   204    88    89    1
   205    88    92    1
   206    88    93    1
   207    88   399    1
   208    89    90    1
   209    89    91    2
   210    92   400    1
   211    92   401    1
   212    92   402    1
   213    93   403    1
   214    93   404    1
   215    94   405    1
   216    94   406    1
   217    94   407    1
   218    95    97    2
   219    96    97    1
   220    96   408    1
   221    97    98    1
   222    98    99    1
   223    98   409    1
   224    98   410    1
   225    99   100    1
   226    99   411    1
   227    99   412    1
   228   100   101    1
   229   100   413    1
   230   100   414    1
   231   101   126    1
   232   101   415    1
   233   101   416    1
   234   102   103    1
   235   102   158    1
   236   103   104    1
   237   103   417    1
   238   103   418    1
   239   104   126    1
   240   104   419    1
   241   104   420    1
   242   105   106    1
   243   105   109    2
   244   105   110    1
   245   106   107    1
   246   106   108    1
   247   106   189    1
   248   107   188    1
   249   107   421    1
   250   107   422    1
   251   108   423    1
   252   108   424    1
   253   108   425    1
   254   110   111    1
   255   111   112    1
   256   111   426    1
   257   111   427    1
   258   112   113    1
   259   112   123    1
   260   112   428    1
   261   113   429    1
   262   113   430    1
   263   113   431    1
   264   114   115    1
   265   114   118    1
   266   114   170    1
   267   114   432    1
   268   115   116    1
   269   115   433    1
   270   115   434    1
   271   116   117    1
   272   116   435    1
   273   116   436    1
   274   117   148    1
   275   118   119    1
   276   118   437    1
   277   118   438    1
   278   119   120    1
   279   119   439    1
   280   119   440    1
   281   120   121    1
   282   120   441    1
   283   120   442    1
   284   121   122    1
   285   121   443    1
   286   121   444    1
   287   122   123    1
   288   122   124    2
   289   125   126    1
   290   125   235    1
   291   126   445    1
   292   127   128    1
   293   127   131    2
   294   127   132    1
   295   128   129    2
   296   128   130    1
   297   129   446    1
   298   129   447    1
   299   130   448    1
   300   130   449    1
   301   130   450    1
   302   132   133    1
   303   133   134    1
   304   133   451    1
   305   133   452    1
   306   134   135    1
   307   134   145    1
   308   134   453    1
   309   135   454    1
   310   135   455    1
   311   135   456    1
   312   136   137    1
   313   136   140    1
   314   136   148    1
   315   136   457    1
   316   137   138    1
   317   137   458    1
   318   137   459    1
   319   138   139    1
   320   138   460    1
   321   138   461    1
   322   139   147    1
   323   140   141    1
   324   140   462    1
   325   140   463    1
   326   141   142    1
   327   141   464    1
   328   141   465    1
   329   142   143    1
   330   142   466    1
   331   142   467    1
   332   143   144    1
   333   143   468    1
   334   143   469    1
   335   144   145    1
   336   144   146    2
   337   149   150    1
   338   149   153    2
   339   149   154    1
   340   150   151    2
   341   150   152    1
   342   151   470    1
   343   151   471    1
   344   152   472    1
   345   152   473    1
   346   152   474    1
   347   154   155    1
   348   155   156    1
   349   155   475    1
   350   155   476    1
   351   156   157    1
   352   156   168    1
   353   156   477    1
   354   157   478    1
   355   157   479    1
   356   157   480    1
   357   158   159    1
   358   159   160    1
   359   159   163    1
   360   159   481    1
   361   160   161    1
   362   160   482    1
   363   160   483    1
   364   161   162    1
   365   161   484    1
   366   161   485    1
   367   162   170    2
   368   163   164    1
   369   163   486    1
   370   163   487    1
   371   164   165    1
   372   164   488    1
   373   164   489    1
   374   165   166    1
   375   165   490    1
   376   165   491    1
   377   166   167    1
   378   166   492    1
   379   166   493    1
   380   167   168    1
   381   167   169    2
   382   171   172    1
   383   171   182    1
   384   171   494    1
   385   171   495    1
   386   172   173    1
   387   172   496    1
   388   172   497    1
   389   173   174    1
   390   173   498    1
   391   173   499    1
   392   174   175    1
   393   174   500    1
   394   174   501    1
   395   175   176    1
   396   175   502    1
   397   175   503    1
   398   176   177    1
   399   176   504    1
   400   176   505    1
   401   177   178    1
   402   177   506    1
   403   177   507    1
   404   178   179    1
   405   178   508    1
   406   178   509    1
   407   179   180    1
   408   179   510    1
   409   179   511    1
   410   180   181    1
   411   180   512    1
   412   180   513    1
   413   181   185    1
   414   181   514    1
   415   181   515    1
   416   182   516    1
   417   182   517    1
   418   182   518    1
   419   183   184    1
   420   183   187    1
   421   183   188    1
   422   183   519    1
   423   184   185    1
   424   184   186    2
   425   187   520    1
   426   187   521    1
   427   187   522    1
   428   188   523    1
   429   188   524    1
   430   189   525    1
   431   189   526    1
   432   189   527    1
   433   190   192    2
   434   191   192    1
   435   191   528    1
   436   192   193    1
   437   193   194    1
   438   193   529    1
   439   193   530    1
   440   194   195    1
   441   194   531    1
   442   194   532    1
   443   195   196    1
   444   195   533    1
   445   195   534    1
   446   196   221    1
   447   196   535    1
   448   196   536    1
   449   197   198    1
   450   197   253    1
   451   198   199    1
   452   198   537    1
   453   198   538    1
   454   199   221    1
   455   199   539    1
   456   199   540    1
   457   200   201    1
   458   200   204    2
   459   200   205    1
   460   201   202    1
   461   201   203    1
   462   201   284    1
   463   202   283    1
   464   202   541    1
   465   202   542    1
   466   203   543    1
   467   203   544    1
   468   203   545    1
   469   205   206    1
   470   206   207    1
   471   206   546    1
   472   206   547    1
   473   207   208    1
   474   207   218    1
   475   207   548    1
   476   208   549    1
   477   208   550    1
   478   208   551    1
   479   209   210    1
   480   209   213    1
   481   209   265    1
   482   209   552    1
   483   210   211    1
   484   210   553    1
   485   210   554    1
   486   211   212    1
   487   211   555    1
   488   211   556    1
   489   212   243    1
   490   213   214    1
   491   213   557    1
   492   213   558    1
   493   214   215    1
   494   214   559    1
   495   214   560    1
   496   215   216    1
   497   215   561    1
   498   215   562    1
   499   216   217    1
   500   216   563    1
   501   216   564    1
   502   217   218    1
   503   217   219    2
   504   220   221    1
   505   220   222    1
   506   221   565    1
   507   222   566    1
   508   222   567    1
   509   222   568    1
   510   223   224    1
   511   223   227    2
   512   223   228    1
   513   224   225    2
   514   224   226    1
   515   225   569    1
   516   225   570    1
   517   226   571    1
   518   226   572    1
   519   226   573    1
   520   228   229    1
   521   229   230    1
   522   229   574    1
   523   229   575    1
   524   230   231    1
   525   230   241    1
   526   230   576    1
   527   231   577    1
   528   231   578    1
   529   231   579    1
   530   232   233    1
   531   232   236    1
   532   232   243    1
   533   232   580    1
   534   233   234    1
   535   233   581    1
   536   233   582    1
   537   234   235    1
   538   234   583    1
   539   234   584    1
   540   236   237    1
   541   236   585    1
   542   236   586    1
   543   237   238    1
   544   237   587    1
   545   237   588    1
   546   238   239    1
   547   238   589    1
   548   238   590    1
   549   239   240    1
   550   239   591    1
   551   239   592    1
   552   240   241    1
   553   240   242    2
   554   244   245    1
   555   244   248    2
   556   244   249    1
   557   245   246    2
   558   245   247    1
   559   246   593    1
   560   246   594    1
   561   247   595    1
   562   247   596    1
   563   247   597    1
   564   249   250    1
   565   250   251    1
   566   250   598    1
   567   250   599    1
   568   251   252    1
   569   251   263    1
   570   251   600    1
   571   252   601    1
   572   252   602    1
   573   252   603    1
   574   253   254    1
   575   254   255    1
   576   254   258    1
   577   254   604    1
   578   255   256    1
   579   255   605    1
   580   255   606    1
   581   256   257    1
   582   256   607    1
   583   256   608    1
   584   257   265    1
   585   258   259    1
   586   258   609    1
   587   258   610    1
   588   259   260    1
   589   259   611    1
   590   259   612    1
   591   260   261    1
   592   260   613    1
   593   260   614    1
   594   261   262    1
   595   261   615    1
   596   261   616    1
   597   262   263    1
   598   262   264    2
   599   266   267    1
   600   266   277    1
   601   266   617    1
   602   266   618    1
   603   267   268    1
   604   267   619    1
   605   267   620    1
   606   268   269    1
   607   268   621    1
   608   268   622    1
   609   269   270    1
   610   269   623    1
   611   269   624    1
   612   270   271    1
   613   270   625    1
   614   270   626    1
   615   271   272    1
   616   271   627    1
   617   271   628    1
   618   272   273    1
   619   272   629    1
   620   272   630    1
   621   273   274    1
   622   273   631    1
   623   273   632    1
   624   274   275    1
   625   274   633    1
   626   274   634    1
   627   275   276    1
   628   275   635    1
   629   275   636    1
   630   276   280    1
   631   276   637    1
   632   276   638    1
   633   277   639    1
   634   277   640    1
   635   277   641    1
   636   278   279    1
   637   278   282    1
   638   278   283    1
   639   278   642    1
   640   279   280    1
   641   279   281    2
   642   282   643    1
   643   282   644    1
   644   282   645    1
   645   283   646    1
   646   283   647    1
   647   284   648    1
   648   284   649    1
   649   284   650    1
   650   651   653    2
   651   652   653    1
   652   652   935    1
   653   653   654    1
   654   654   655    1
   655   654   936    1
   656   654   937    1
   657   655   656    1
   658   655   938    1
   659   655   939    1
   660   656   657    1
   661   656   940    1
   662   656   941    1
   663   657   681    1
   664   657   942    1
   665   657   943    1
   666   658   659    1
   667   658   713    2
   668   659   660    1
   669   659   944    1
   670   659   945    1
   671   660   681    1
   672   660   946    1
   673   660   947    1
   674   661   662    1
   675   661   665    2
   676   661   666    1
   677   662   663    1
   678   662   664    1
   679   662   744    1
   680   663   743    1
   681   663   948    1
   682   663   949    1
   683   664   950    1
   684   664   951    1
   685   664   952    1
   686   666   667    1
   687   667   668    1
   688   667   953    1
   689   667   954    1
   690   668   669    1
   691   668   679    1
   692   668   955    1
   693   669   956    1
   694   669   957    1
   695   669   958    1
   696   670   671    1
   697   670   674    1
   698   670   725    1
   699   670   959    1
   700   671   672    1
   701   671   960    1
   702   671   961    1
   703   672   673    1
   704   672   962    1
   705   672   963    1
   706   673   703    1
   707   674   675    1
   708   674   964    1
   709   674   965    1
   710   675   676    1
   711   675   966    1
   712   675   967    1
   713   676   677    1
   714   676   968    1
   715   676   969    1
   716   677   678    1
   717   677   970    1
   718   677   971    1
   719   678   679    1
   720   678   680    2
   721   681   797    1
   722   681   972    1
   723   682   683    1
   724   682   686    2
   725   682   687    1
   726   683   684    2
   727   683   685    1
   728   684   973    1
   729   684   974    1
   730   685   975    1
   731   685   976    1
   732   685   977    1
   733   687   688    1
   734   688   689    1
   735   688   978    1
   736   688   979    1
   737   689   690    1
   738   689   700    1
   739   689   980    1
   740   690   981    1
   741   690   982    1
   742   690   983    1
   743   691   692    1
   744   691   695    1
   745   691   703    1
   746   691   984    1
   747   692   693    1
   748   692   985    1
   749   692   986    1
   750   693   694    1
   751   693   987    1
   752   693   988    1
   753   694   702    1
   754   695   696    1
   755   695   989    1
   756   695   990    1
   757   696   697    1
   758   696   991    1
   759   696   992    1
   760   697   698    1
   761   697   993    1
   762   697   994    1
   763   698   699    1
   764   698   995    1
   765   698   996    1
   766   699   700    1
   767   699   701    2
   768   702   997    1
   769   702   998    1
   770   702   999    1
   771   704   705    1
   772   704   708    2
   773   704   709    1
   774   705   706    2
   775   705   707    1
   776   706  1000    1
   777   706  1001    1
   778   707  1002    1
   779   707  1003    1
   780   707  1004    1
   781   709   710    1
   782   710   711    1
   783   710  1005    1
   784   710  1006    1
   785   711   712    1
   786   711   723    1
   787   711  1007    1
   788   712  1008    1
   789   712  1009    1
   790   712  1010    1
   791   713   714    1
   792   714   715    1
   793   714   718    1
   794   714  1011    1
   795   715   716    1
   796   715  1012    1
   797   715  1013    1
   798   716   717    1
   799   716  1014    1
   800   716  1015    1
   801   717   725    1
   802   718   719    1
   803   718  1016    1
   804   718  1017    1
   805   719   720    1
   806   719  1018    1
   807   719  1019    1
   808   720   721    1
   809   720  1020    1
   810   720  1021    1
   811   721   722    1
   812   721  1022    1
   813   721  1023    1
   814   722   723    1
   815   722   724    2
   816   726   727    1
   817   726   737    1
   818   726  1024    1
   819   726  1025    1
   820   727   728    1
   821   727  1026    1
   822   727  1027    1
   823   728   729    1
   824   728  1028    1
   825   728  1029    1
   826   729   730    1
   827   729  1030    1
   828   729  1031    1
   829   730   731    1
   830   730  1032    1
   831   730  1033    1
   832   731   732    1
   833   731  1034    1
   834   731  1035    1
   835   732   733    1
   836   732  1036    1
   837   732  1037    1
   838   733   734    1
   839   733  1038    1
   840   733  1039    1
   841   734   735    1
   842   734  1040    1
   843   734  1041    1
   844   735   736    1
   845   735  1042    1
   846   735  1043    1
   847   736   740    1
   848   736  1044    1
   849   736  1045    1
   850   737  1046    1
   851   737  1047    1
   852   737  1048    1
   853   738   739    1
   854   738   742    1
   855   738   743    1
   856   738  1049    1
   857   739   740    1
   858   739   741    2
   859   742  1050    1
   860   742  1051    1
   861   742  1052    1
   862   743  1053    1
   863   743  1054    1
   864   744  1055    1
   865   744  1056    1
   866   744  1057    1
   867   745   747    2
   868   746   747    1
   869   746  1058    1
   870   747   748    1
   871   748   749    1
   872   748  1059    1
   873   748  1060    1
   874   749   750    1
   875   749  1061    1
   876   749  1062    1
   877   750   751    1
   878   750  1063    1
   879   750  1064    1
   880   751   776    1
   881   751  1065    1
   882   751  1066    1
   883   752   753    1
   884   752   808    1
   885   753   754    1
   886   753  1067    1
   887   753  1068    1
   888   754   776    1
   889   754  1069    1
   890   754  1070    1
   891   755   756    1
   892   755   759    2
   893   755   760    1
   894   756   757    1
   895   756   758    1
   896   756   839    1
   897   757   838    1
   898   757  1071    1
   899   757  1072    1
   900   758  1073    1
   901   758  1074    1
   902   758  1075    1
   903   760   761    1
   904   761   762    1
   905   761  1076    1
   906   761  1077    1
   907   762   763    1
   908   762   773    1
   909   762  1078    1
   910   763  1079    1
   911   763  1080    1
   912   763  1081    1
   913   764   765    1
   914   764   768    1
   915   764   820    1
   916   764  1082    1
   917   765   766    1
   918   765  1083    1
   919   765  1084    1
   920   766   767    1
   921   766  1085    1
   922   766  1086    1
   923   767   798    1
   924   768   769    1
   925   768  1087    1
   926   768  1088    1
   927   769   770    1
   928   769  1089    1
   929   769  1090    1
   930   770   771    1
   931   770  1091    1
   932   770  1092    1
   933   771   772    1
   934   771  1093    1
   935   771  1094    1
   936   772   773    1
   937   772   774    2
   938   775   776    1
   939   775   885    1
   940   776  1095    1
   941   777   778    1
   942   777   781    2
   943   777   782    1
   944   778   779    2
   945   778   780    1
   946   779  1096    1
   947   779  1097    1
   948   780  1098    1
   949   780  1099    1
   950   780  1100    1
   951   782   783    1
   952   783   784    1
   953   783  1101    1
   954   783  1102    1
   955   784   785    1
   956   784   795    1
   957   784  1103    1
   958   785  1104    1
   959   785  1105    1
   960   785  1106    1
   961   786   787    1
   962   786   790    1
   963   786   798    1
   964   786  1107    1
   965   787   788    1
   966   787  1108    1
   967   787  1109    1
   968   788   789    1
   969   788  1110    1
   970   788  1111    1
   971   789   797    1
   972   790   791    1
   973   790  1112    1
   974   790  1113    1
   975   791   792    1
   976   791  1114    1
   977   791  1115    1
   978   792   793    1
   979   792  1116    1
   980   792  1117    1
   981   793   794    1
   982   793  1118    1
   983   793  1119    1
   984   794   795    1
   985   794   796    2
   986   799   800    1
   987   799   803    2
   988   799   804    1
   989   800   801    2
   990   800   802    1
   991   801  1120    1
   992   801  1121    1
   993   802  1122    1
   994   802  1123    1
   995   802  1124    1
   996   804   805    1
   997   805   806    1
   998   805  1125    1
   999   805  1126    1
  1000   806   807    1
  1001   806   818    1
  1002   806  1127    1
  1003   807  1128    1
  1004   807  1129    1
  1005   807  1130    1
  1006   808   809    1
  1007   809   810    1
  1008   809   813    1
  1009   809  1131    1
  1010   810   811    1
  1011   810  1132    1
  1012   810  1133    1
  1013   811   812    1
  1014   811  1134    1
  1015   811  1135    1
  1016   812   820    2
  1017   813   814    1
  1018   813  1136    1
  1019   813  1137    1
  1020   814   815    1
  1021   814  1138    1
  1022   814  1139    1
  1023   815   816    1
  1024   815  1140    1
  1025   815  1141    1
  1026   816   817    1
  1027   816  1142    1
  1028   816  1143    1
  1029   817   818    1
  1030   817   819    2
  1031   821   822    1
  1032   821   832    1
  1033   821  1144    1
  1034   821  1145    1
  1035   822   823    1
  1036   822  1146    1
  1037   822  1147    1
  1038   823   824    1
  1039   823  1148    1
  1040   823  1149    1
  1041   824   825    1
  1042   824  1150    1
  1043   824  1151    1
  1044   825   826    1
  1045   825  1152    1
  1046   825  1153    1
  1047   826   827    1
  1048   826  1154    1
  1049   826  1155    1
  1050   827   828    1
  1051   827  1156    1
  1052   827  1157    1
  1053   828   829    1
  1054   828  1158    1
  1055   828  1159    1
  1056   829   830    1
  1057   829  1160    1
  1058   829  1161    1
  1059   830   831    1
  1060   830  1162    1
  1061   830  1163    1
  1062   831   835    1
  1063   831  1164    1
  1064   831  1165    1
  1065   832  1166    1
  1066   832  1167    1
  1067   832  1168    1
  1068   833   834    1
  1069   833   837    1
  1070   833   838    1
  1071   833  1169    1
  1072   834   835    1
  1073   834   836    2
  1074   837  1170    1
  1075   837  1171    1
  1076   837  1172    1
  1077   838  1173    1
  1078   838  1174    1
  1079   839  1175    1
  1080   839  1176    1
  1081   839  1177    1
  1082   840   842    2
  1083   841   842    1
  1084   841  1178    1
  1085   842   843    1
  1086   843   844    1
  1087   843  1179    1
  1088   843  1180    1
  1089   844   845    1
  1090   844  1181    1
  1091   844  1182    1
  1092   845   846    1
  1093   845  1183    1
  1094   845  1184    1
  1095   846   871    1
  1096   846  1185    1
  1097   846  1186    1
  1098   847   848    1
  1099   847   903    1
  1100   848   849    1
  1101   848  1187    1
  1102   848  1188    1
  1103   849   871    1
  1104   849  1189    1
  1105   849  1190    1
  1106   850   851    1
  1107   850   854    2
  1108   850   855    1
  1109   851   852    1
  1110   851   853    1
  1111   851   934    1
  1112   852   933    1
  1113   852  1191    1
  1114   852  1192    1
  1115   853  1193    1
  1116   853  1194    1
  1117   853  1195    1
  1118   855   856    1
  1119   856   857    1
  1120   856  1196    1
  1121   856  1197    1
  1122   857   858    1
  1123   857   868    1
  1124   857  1198    1
  1125   858  1199    1
  1126   858  1200    1
  1127   858  1201    1
  1128   859   860    1
  1129   859   863    1
  1130   859   915    1
  1131   859  1202    1
  1132   860   861    1
  1133   860  1203    1
  1134   860  1204    1
  1135   861   862    1
  1136   861  1205    1
  1137   861  1206    1
  1138   862   893    1
  1139   863   864    1
  1140   863  1207    1
  1141   863  1208    1
  1142   864   865    1
  1143   864  1209    1
  1144   864  1210    1
  1145   865   866    1
  1146   865  1211    1
  1147   865  1212    1
  1148   866   867    1
  1149   866  1213    1
  1150   866  1214    1
  1151   867   868    1
  1152   867   869    2
  1153   870   871    1
  1154   870   872    1
  1155   871  1215    1
  1156   872  1216    1
  1157   872  1217    1
  1158   872  1218    1
  1159   873   874    1
  1160   873   877    2
  1161   873   878    1
  1162   874   875    2
  1163   874   876    1
  1164   875  1219    1
  1165   875  1220    1
  1166   876  1221    1
  1167   876  1222    1
  1168   876  1223    1
  1169   878   879    1
  1170   879   880    1
  1171   879  1224    1
  1172   879  1225    1
  1173   880   881    1
  1174   880   891    1
  1175   880  1226    1
  1176   881  1227    1
  1177   881  1228    1
  1178   881  1229    1
  1179   882   883    1
  1180   882   886    1
  1181   882   893    1
  1182   882  1230    1
  1183   883   884    1
  1184   883  1231    1
  1185   883  1232    1
  1186   884   885    1
  1187   884  1233    1
  1188   884  1234    1
  1189   886   887    1
  1190   886  1235    1
  1191   886  1236    1
  1192   887   888    1
  1193   887  1237    1
  1194   887  1238    1
  1195   888   889    1
  1196   888  1239    1
  1197   888  1240    1
  1198   889   890    1
  1199   889  1241    1
  1200   889  1242    1
  1201   890   891    1
  1202   890   892    2
  1203   894   895    1
  1204   894   898    2
  1205   894   899    1
  1206   895   896    2
  1207   895   897    1
  1208   896  1243    1
  1209   896  1244    1
  1210   897  1245    1
  1211   897  1246    1
  1212   897  1247    1
  1213   899   900    1
  1214   900   901    1
  1215   900  1248    1
  1216   900  1249    1
  1217   901   902    1
  1218   901   913    1
  1219   901  1250    1
  1220   902  1251    1
  1221   902  1252    1
  1222   902  1253    1
  1223   903   904    1
  1224   904   905    1
  1225   904   908    1
  1226   904  1254    1
  1227   905   906    1
  1228   905  1255    1
  1229   905  1256    1
  1230   906   907    1
  1231   906  1257    1
  1232   906  1258    1
  1233   907   915    1
  1234   908   909    1
  1235   908  1259    1
  1236   908  1260    1
  1237   909   910    1
  1238   909  1261    1
  1239   909  1262    1
  1240   910   911    1
  1241   910  1263    1
  1242   910  1264    1
  1243   911   912    1
  1244   911  1265    1
  1245   911  1266    1
  1246   912   913    1
  1247   912   914    2
  1248   916   917    1
  1249   916   927    1
  1250   916  1267    1
  1251   916  1268    1
  1252   917   918    1
  1253   917  1269    1
  1254   917  1270    1
  1255   918   919    1
  1256   918  1271    1
  1257   918  1272    1
  1258   919   920    1
  1259   919  1273    1
  1260   919  1274    1
  1261   920   921    1
  1262   920  1275    1
  1263   920  1276    1
  1264   921   922    1
  1265   921  1277    1
  1266   921  1278    1
  1267   922   923    1
  1268   922  1279    1
  1269   922  1280    1
  1270   923   924    1
  1271   923  1281    1
  1272   923  1282    1
  1273   924   925    1
  1274   924  1283    1
  1275   924  1284    1
  1276   925   926    1
  1277   925  1285    1
  1278   925  1286    1
  1279   926   930    1
  1280   926  1287    1
  1281   926  1288    1
  1282   927  1289    1
  1283   927  1290    1
  1284   927  1291    1
  1285   928   929    1
  1286   928   932    1
  1287   928   933    1
  1288   928  1292    1
  1289   929   930    1
  1290   929   931    2
  1291   932  1293    1
  1292   932  1294    1
  1293   932  1295    1
  1294   933  1296    1
  1295   933  1297    1
  1296   934  1298    1
  1297   934  1299    1
  1298   934  1300    1
  1299  1301  1303    2
  1300  1302  1303    1
  1301  1302  1585    1
  1302  1303  1304    1
  1303  1304  1305    1
  1304  1304  1586    1
  1305  1304  1587    1
  1306  1305  1306    1
  1307  1305  1588    1
  1308  1305  1589    1
  1309  1306  1307    1
  1310  1306  1590    1
  1311  1306  1591    1
  1312  1307  1331    1
  1313  1307  1592    1
  1314  1307  1593    1
  1315  1308  1309    1
  1316  1308  1363    2
  1317  1309  1310    1
  1318  1309  1594    1
  1319  1309  1595    1
  1320  1310  1331    1
  1321  1310  1596    1
  1322  1310  1597    1
  1323  1311  1312    1
  1324  1311  1315    2
  1325  1311  1316    1
  1326  1312  1313    1
  1327  1312  1314    1
  1328  1312  1394    1
  1329  1313  1393    1
  1330  1313  1598    1
  1331  1313  1599    1
  1332  1314  1600    1
  1333  1314  1601    1
  1334  1314  1602    1
  1335  1316  1317    1
  1336  1317  1318    1
  1337  1317  1603    1
  1338  1317  1604    1
  1339  1318  1319    1
  1340  1318  1329    1
  1341  1318  1605    1
  1342  1319  1606    1
  1343  1319  1607    1
  1344  1319  1608    1
  1345  1320  1321    1
  1346  1320  1324    1
  1347  1320  1375    1
  1348  1320  1609    1
  1349  1321  1322    1
  1350  1321  1610    1
  1351  1321  1611    1
  1352  1322  1323    1
  1353  1322  1612    1
  1354  1322  1613    1
  1355  1323  1353    1
  1356  1324  1325    1
  1357  1324  1614    1
  1358  1324  1615    1
  1359  1325  1326    1
  1360  1325  1616    1
  1361  1325  1617    1
  1362  1326  1327    1
  1363  1326  1618    1
  1364  1326  1619    1
  1365  1327  1328    1
  1366  1327  1620    1
  1367  1327  1621    1
  1368  1328  1329    1
  1369  1328  1330    2
  1370  1331  1447    1
  1371  1331  1622    1
  1372  1332  1333    1
  1373  1332  1336    2
  1374  1332  1337    1
  1375  1333  1334    2
  1376  1333  1335    1
  1377  1334  1623    1
  1378  1334  1624    1
  1379  1335  1625    1
  1380  1335  1626    1
  1381  1335  1627    1
  1382  1337  1338    1
  1383  1338  1339    1
  1384  1338  1628    1
  1385  1338  1629    1
  1386  1339  1340    1
  1387  1339  1350    1
  1388  1339  1630    1
  1389  1340  1631    1
  1390  1340  1632    1
  1391  1340  1633    1
  1392  1341  1342    1
  1393  1341  1345    1
  1394  1341  1353    1
  1395  1341  1634    1
  1396  1342  1343    1
  1397  1342  1635    1
  1398  1342  1636    1
  1399  1343  1344    1
  1400  1343  1637    1
  1401  1343  1638    1
  1402  1344  1352    1
  1403  1345  1346    1
  1404  1345  1639    1
  1405  1345  1640    1
  1406  1346  1347    1
  1407  1346  1641    1
  1408  1346  1642    1
  1409  1347  1348    1
  1410  1347  1643    1
  1411  1347  1644    1
  1412  1348  1349    1
  1413  1348  1645    1
  1414  1348  1646    1
  1415  1349  1350    1
  1416  1349  1351    2
  1417  1352  1647    1
  1418  1352  1648    1
  1419  1352  1649    1
  1420  1354  1355    1
  1421  1354  1358    2
  1422  1354  1359    1
  1423  1355  1356    2
  1424  1355  1357    1
  1425  1356  1650    1
  1426  1356  1651    1
  1427  1357  1652    1
  1428  1357  1653    1
  1429  1357  1654    1
  1430  1359  1360    1
  1431  1360  1361    1
  1432  1360  1655    1
  1433  1360  1656    1
  1434  1361  1362    1
  1435  1361  1373    1
  1436  1361  1657    1
  1437  1362  1658    1
  1438  1362  1659    1
  1439  1362  1660    1
  1440  1363  1364    1
  1441  1364  1365    1
  1442  1364  1368    1
  1443  1364  1661    1
  1444  1365  1366    1
  1445  1365  1662    1
  1446  1365  1663    1
  1447  1366  1367    1
  1448  1366  1664    1
  1449  1366  1665    1
  1450  1367  1375    1
  1451  1368  1369    1
  1452  1368  1666    1
  1453  1368  1667    1
  1454  1369  1370    1
  1455  1369  1668    1
  1456  1369  1669    1
  1457  1370  1371    1
  1458  1370  1670    1
  1459  1370  1671    1
  1460  1371  1372    1
  1461  1371  1672    1
  1462  1371  1673    1
  1463  1372  1373    1
  1464  1372  1374    2
  1465  1376  1377    1
  1466  1376  1387    1
  1467  1376  1674    1
  1468  1376  1675    1
  1469  1377  1378    1
  1470  1377  1676    1
  1471  1377  1677    1
  1472  1378  1379    1
  1473  1378  1678    1
  1474  1378  1679    1
  1475  1379  1380    1
  1476  1379  1680    1
  1477  1379  1681    1
  1478  1380  1381    1
  1479  1380  1682    1
  1480  1380  1683    1
  1481  1381  1382    1
  1482  1381  1684    1
  1483  1381  1685    1
  1484  1382  1383    1
  1485  1382  1686    1
  1486  1382  1687    1
  1487  1383  1384    1
  1488  1383  1688    1
  1489  1383  1689    1
  1490  1384  1385    1
  1491  1384  1690    1
  1492  1384  1691    1
  1493  1385  1386    1
  1494  1385  1692    1
  1495  1385  1693    1
  1496  1386  1390    1
  1497  1386  1694    1
  1498  1386  1695    1
  1499  1387  1696    1
  1500  1387  1697    1
  1501  1387  1698    1
  1502  1388  1389    1
  1503  1388  1392    1
  1504  1388  1393    1
  1505  1388  1699    1
  1506  1389  1390    1
  1507  1389  1391    2
  1508  1392  1700    1
  1509  1392  1701    1
  1510  1392  1702    1
  1511  1393  1703    1
  1512  1393  1704    1
  1513  1394  1705    1
  1514  1394  1706    1
  1515  1394  1707    1
  1516  1395  1397    2
  1517  1396  1397    1
  1518  1396  1708    1
  1519  1397  1398    1
  1520  1398  1399    1
  1521  1398  1709    1
  1522  1398  1710    1
  1523  1399  1400    1
  1524  1399  1711    1
  1525  1399  1712    1
  1526  1400  1401    1
  1527  1400  1713    1
  1528  1400  1714    1
  1529  1401  1426    1
  1530  1401  1715    1
  1531  1401  1716    1
  1532  1402  1403    1
  1533  1402  1458    1
  1534  1403  1404    1
  1535  1403  1717    1
  1536  1403  1718    1
  1537  1404  1426    1
  1538  1404  1719    1
  1539  1404  1720    1
  1540  1405  1406    1
  1541  1405  1409    2
  1542  1405  1410    1
  1543  1406  1407    1
  1544  1406  1408    1
  1545  1406  1489    1
  1546  1407  1488    1
  1547  1407  1721    1
  1548  1407  1722    1
  1549  1408  1723    1
  1550  1408  1724    1
  1551  1408  1725    1
  1552  1410  1411    1
  1553  1411  1412    1
  1554  1411  1726    1
  1555  1411  1727    1
  1556  1412  1413    1
  1557  1412  1423    1
  1558  1412  1728    1
  1559  1413  1729    1
  1560  1413  1730    1
  1561  1413  1731    1
  1562  1414  1415    1
  1563  1414  1418    1
  1564  1414  1470    1
  1565  1414  1732    1
  1566  1415  1416    1
  1567  1415  1733    1
  1568  1415  1734    1
  1569  1416  1417    1
  1570  1416  1735    1
  1571  1416  1736    1
  1572  1417  1448    1
  1573  1418  1419    1
  1574  1418  1737    1
  1575  1418  1738    1
  1576  1419  1420    1
  1577  1419  1739    1
  1578  1419  1740    1
  1579  1420  1421    1
  1580  1420  1741    1
  1581  1420  1742    1
  1582  1421  1422    1
  1583  1421  1743    1
  1584  1421  1744    1
  1585  1422  1423    1
  1586  1422  1424    2
  1587  1425  1426    1
  1588  1425  1535    1
  1589  1426  1745    1
  1590  1427  1428    1
  1591  1427  1431    2
  1592  1427  1432    1
  1593  1428  1429    2
  1594  1428  1430    1
  1595  1429  1746    1
  1596  1429  1747    1
  1597  1430  1748    1
  1598  1430  1749    1
  1599  1430  1750    1
  1600  1432  1433    1
  1601  1433  1434    1
  1602  1433  1751    1
  1603  1433  1752    1
  1604  1434  1435    1
  1605  1434  1445    1
  1606  1434  1753    1
  1607  1435  1754    1
  1608  1435  1755    1
  1609  1435  1756    1
  1610  1436  1437    1
  1611  1436  1440    1
  1612  1436  1448    1
  1613  1436  1757    1
  1614  1437  1438    1
  1615  1437  1758    1
  1616  1437  1759    1
  1617  1438  1439    1
  1618  1438  1760    1
  1619  1438  1761    1
  1620  1439  1447    1
  1621  1440  1441    1
  1622  1440  1762    1
  1623  1440  1763    1
  1624  1441  1442    1
  1625  1441  1764    1
  1626  1441  1765    1
  1627  1442  1443    1
  1628  1442  1766    1
  1629  1442  1767    1
  1630  1443  1444    1
  1631  1443  1768    1
  1632  1443  1769    1
  1633  1444  1445    1
  1634  1444  1446    2
  1635  1449  1450    1
  1636  1449  1453    2
  1637  1449  1454    1
  1638  1450  1451    2
  1639  1450  1452    1
  1640  1451  1770    1
  1641  1451  1771    1
  1642  1452  1772    1
  1643  1452  1773    1
  1644  1452  1774    1
  1645  1454  1455    1
  1646  1455  1456    1
  1647  1455  1775    1
  1648  1455  1776    1
  1649  1456  1457    1
  1650  1456  1468    1
  1651  1456  1777    1
  1652  1457  1778    1
  1653  1457  1779    1
  1654  1457  1780    1
  1655  1458  1459    1
  1656  1459  1460    1
  1657  1459  1463    1
  1658  1459  1781    1
  1659  1460  1461    1
  1660  1460  1782    1
  1661  1460  1783    1
  1662  1461  1462    1
  1663  1461  1784    1
  1664  1461  1785    1
  1665  1462  1470    2
  1666  1463  1464    1
  1667  1463  1786    1
  1668  1463  1787    1
  1669  1464  1465    1
  1670  1464  1788    1
  1671  1464  1789    1
  1672  1465  1466    1
  1673  1465  1790    1
  1674  1465  1791    1
  1675  1466  1467    1
  1676  1466  1792    1
  1677  1466  1793    1
  1678  1467  1468    1
  1679  1467  1469    2
  1680  1471  1472    1
  1681  1471  1482    1
  1682  1471  1794    1
  1683  1471  1795    1
  1684  1472  1473    1
  1685  1472  1796    1
  1686  1472  1797    1
  1687  1473  1474    1
  1688  1473  1798    1
  1689  1473  1799    1
  1690  1474  1475    1
  1691  1474  1800    1
  1692  1474  1801    1
  1693  1475  1476    1
  1694  1475  1802    1
  1695  1475  1803    1
  1696  1476  1477    1
  1697  1476  1804    1
  1698  1476  1805    1
  1699  1477  1478    1
  1700  1477  1806    1
  1701  1477  1807    1
  1702  1478  1479    1
  1703  1478  1808    1
  1704  1478  1809    1
  1705  1479  1480    1
  1706  1479  1810    1
  1707  1479  1811    1
  1708  1480  1481    1
  1709  1480  1812    1
  1710  1480  1813    1
  1711  1481  1485    1
  1712  1481  1814    1
  1713  1481  1815    1
  1714  1482  1816    1
  1715  1482  1817    1
  1716  1482  1818    1
  1717  1483  1484    1
  1718  1483  1487    1
  1719  1483  1488    1
  1720  1483  1819    1
  1721  1484  1485    1
  1722  1484  1486    2
  1723  1487  1820    1
  1724  1487  1821    1
  1725  1487  1822    1
  1726  1488  1823    1
  1727  1488  1824    1
  1728  1489  1825    1
  1729  1489  1826    1
  1730  1489  1827    1
  1731  1490  1492    2
  1732  1491  1492    1
  1733  1491  1828    1
  1734  1492  1493    1
  1735  1493  1494    1
  1736  1493  1829    1
  1737  1493  1830    1
  1738  1494  1495    1
  1739  1494  1831    1
  1740  1494  1832    1
  1741  1495  1496    1
  1742  1495  1833    1
  1743  1495  1834    1
  1744  1496  1521    1
  1745  1496  1835    1
  1746  1496  1836    1
  1747  1497  1498    1
  1748  1497  1553    1
  1749  1498  1499    1
  1750  1498  1837    1
  1751  1498  1838    1
  1752  1499  1521    1
  1753  1499  1839    1
  1754  1499  1840    1
  1755  1500  1501    1
  1756  1500  1504    2
  1757  1500  1505    1
  1758  1501  1502    1
  1759  1501  1503    1
  1760  1501  1584    1
  1761  1502  1583    1
  1762  1502  1841    1
  1763  1502  1842    1
  1764  1503  1843    1
  1765  1503  1844    1
  1766  1503  1845    1
  1767  1505  1506    1
  1768  1506  1507    1
  1769  1506  1846    1
  1770  1506  1847    1
  1771  1507  1508    1
  1772  1507  1518    1
  1773  1507  1848    1
  1774  1508  1849    1
  1775  1508  1850    1
  1776  1508  1851    1
  1777  1509  1510    1
  1778  1509  1513    1
  1779  1509  1565    1
  1780  1509  1852    1
  1781  1510  1511    1
  1782  1510  1853    1
  1783  1510  1854    1
  1784  1511  1512    1
  1785  1511  1855    1
  1786  1511  1856    1
  1787  1512  1543    1
  1788  1513  1514    1
  1789  1513  1857    1
  1790  1513  1858    1
  1791  1514  1515    1
  1792  1514  1859    1
  1793  1514  1860    1
  1794  1515  1516    1
  1795  1515  1861    1
  1796  1515  1862    1
  1797  1516  1517    1
  1798  1516  1863    1
  1799  1516  1864    1
  1800  1517  1518    1
  1801  1517  1519    2
  1802  1520  1521    1
  1803  1520  1522    1
  1804  1521  1865    1
  1805  1522  1866    1
  1806  1522  1867    1
  1807  1522  1868    1
  1808  1523  1524    1
  1809  1523  1527    2
  1810  1523  1528    1
  1811  1524  1525    2
  1812  1524  1526    1
  1813  1525  1869    1
  1814  1525  1870    1
  1815  1526  1871    1
  1816  1526  1872    1
  1817  1526  1873    1
  1818  1528  1529    1
  1819  1529  1530    1
  1820  1529  1874    1
  1821  1529  1875    1
  1822  1530  1531    1
  1823  1530  1541    1
  1824  1530  1876    1
  1825  1531  1877    1
  1826  1531  1878    1
  1827  1531  1879    1
  1828  1532  1533    1
  1829  1532  1536    1
  1830  1532  1543    1
  1831  1532  1880    1
  1832  1533  1534    1
  1833  1533  1881    1
  1834  1533  1882    1
  1835  1534  1535    1
  1836  1534  1883    1
  1837  1534  1884    1
  1838  1536  1537    1
  1839  1536  1885    1
  1840  1536  1886    1
  1841  1537  1538    1
  1842  1537  1887    1
  1843  1537  1888    1
  1844  1538  1539    1
  1845  1538  1889    1
  1846  1538  1890    1
  1847  1539  1540    1
  1848  1539  1891    1
  1849  1539  1892    1
  1850  1540  1541    1
  1851  1540  1542    2
  1852  1544  1545    1
  1853  1544  1548    2
  1854  1544  1549    1
  1855  1545  1546    2
  1856  1545  1547    1
  1857  1546  1893    1
  1858  1546  1894    1
  1859  1547  1895    1
  1860  1547  1896    1
  1861  1547  1897    1
  1862  1549  1550    1
  1863  1550  1551    1
  1864  1550  1898    1
  1865  1550  1899    1
  1866  1551  1552    1
  1867  1551  1563    1
  1868  1551  1900    1
  1869  1552  1901    1
  1870  1552  1902    1
  1871  1552  1903    1
  1872  1553  1554    1
  1873  1554  1555    1
  1874  1554  1558    1
  1875  1554  1904    1
  1876  1555  1556    1
  1877  1555  1905    1
  1878  1555  1906    1
  1879  1556  1557    1
  1880  1556  1907    1
  1881  1556  1908    1
  1882  1557  1565    1
  1883  1558  1559    1
  1884  1558  1909    1
  1885  1558  1910    1
  1886  1559  1560    1
  1887  1559  1911    1
  1888  1559  1912    1
  1889  1560  1561    1
  1890  1560  1913    1
  1891  1560  1914    1
  1892  1561  1562    1
  1893  1561  1915    1
  1894  1561  1916    1
  1895  1562  1563    1
  1896  1562  1564    2
  1897  1566  1567    1
  1898  1566  1577    1
  1899  1566  1917    1
  1900  1566  1918    1
  1901  1567  1568    1
  1902  1567  1919    1
  1903  1567  1920    1
  1904  1568  1569    1
  1905  1568  1921    1
  1906  1568  1922    1
  1907  1569  1570    1
  1908  1569  1923    1
  1909  1569  1924    1
  1910  1570  1571    1
  1911  1570  1925    1
  1912  1570  1926    1
  1913  1571  1572    1
  1914  1571  1927    1
  1915  1571  1928    1
  1916  1572  1573    1
  1917  1572  1929    1
  1918  1572  1930    1
  1919  1573  1574    1
  1920  1573  1931    1
  1921  1573  1932    1
  1922  1574  1575    1
  1923  1574  1933    1
  1924  1574  1934    1
  1925  1575  1576    1
  1926  1575  1935    1
  1927  1575  1936    1
  1928  1576  1580    1
  1929  1576  1937    1
  1930  1576  1938    1
  1931  1577  1939    1
  1932  1577  1940    1
  1933  1577  1941    1
  1934  1578  1579    1
  1935  1578  1582    1
  1936  1578  1583    1
  1937  1578  1942    1
  1938  1579  1580    1
  1939  1579  1581    2
  1940  1582  1943    1
  1941  1582  1944    1
  1942  1582  1945    1
  1943  1583  1946    1
  1944  1583  1947    1
  1945  1584  1948    1
  1946  1584  1949    1
  1947  1584  1950    1
  1948  1951  1953    2
  1949  1952  1953    1
  1950  1952  2235    1
  1951  1953  1954    1
  1952  1954  1955    1
  1953  1954  2236    1
  1954  1954  2237    1
  1955  1955  1956    1
  1956  1955  2238    1
  1957  1955  2239    1
  1958  1956  1957    1
  1959  1956  2240    1
  1960  1956  2241    1
  1961  1957  1981    1
  1962  1957  2242    1
  1963  1957  2243    1
  1964  1958  1959    1
  1965  1958  2013    2
  1966  1959  1960    1
  1967  1959  2244    1
  1968  1959  2245    1
  1969  1960  1981    1
  1970  1960  2246    1
  1971  1960  2247    1
  1972  1961  1962    1
  1973  1961  1965    2
  1974  1961  1966    1
  1975  1962  1963    1
  1976  1962  1964    1
  1977  1962  2044    1
  1978  1963  2043    1
  1979  1963  2248    1
  1980  1963  2249    1
  1981  1964  2250    1
  1982  1964  2251    1
  1983  1964  2252    1
  1984  1966  1967    1
  1985  1967  1968    1
  1986  1967  2253    1
  1987  1967  2254    1
  1988  1968  1969    1
  1989  1968  1979    1
  1990  1968  2255    1
  1991  1969  2256    1
  1992  1969  2257    1
  1993  1969  2258    1
  1994  1970  1971    1
  1995  1970  1974    1
  1996  1970  2025    1
  1997  1970  2259    1
  1998  1971  1972    1
  1999  1971  2260    1
  2000  1971  2261    1
  2001  1972  1973    1
  2002  1972  2262    1
  2003  1972  2263    1
  2004  1973  2003    1
  2005  1974  1975    1
  2006  1974  2264    1
  2007  1974  2265    1
  2008  1975  1976    1
  2009  1975  2266    1
  2010  1975  2267    1
  2011  1976  1977    1
  2012  1976  2268    1
  2013  1976  2269    1
  2014  1977  1978    1
  2015  1977  2270    1
  2016  1977  2271    1
  2017  1978  1979    1
  2018  1978  1980    2
  2019  1981  2097    1
  2020  1981  2272    1
  2021  1982  1983    1
  2022  1982  1986    2
  2023  1982  1987    1
  2024  1983  1984    2
  2025  1983  1985    1
  2026  1984  2273    1
  2027  1984  2274    1
  2028  1985  2275    1
  2029  1985  2276    1
  2030  1985  2277    1
  2031  1987  1988    1
  2032  1988  1989    1
  2033  1988  2278    1
  2034  1988  2279    1
  2035  1989  1990    1
  2036  1989  2000    1
  2037  1989  2280    1
  2038  1990  2281    1
  2039  1990  2282    1
  2040  1990  2283    1
  2041  1991  1992    1
  2042  1991  1995    1
  2043  1991  2003    1
  2044  1991  2284    1
  2045  1992  1993    1
  2046  1992  2285    1
  2047  1992  2286    1
  2048  1993  1994    1
  2049  1993  2287    1
  2050  1993  2288    1
  2051  1994  2002    1
  2052  1995  1996    1
  2053  1995  2289    1
  2054  1995  2290    1
  2055  1996  1997    1
  2056  1996  2291    1
  2057  1996  2292    1
  2058  1997  1998    1
  2059  1997  2293    1
  2060  1997  2294    1
  2061  1998  1999    1
  2062  1998  2295    1
  2063  1998  2296    1
  2064  1999  2000    1
  2065  1999  2001    2
  2066  2002  2297    1
  2067  2002  2298    1
  2068  2002  2299    1
  2069  2004  2005    1
  2070  2004  2008    2
  2071  2004  2009    1
  2072  2005  2006    2
  2073  2005  2007    1
  2074  2006  2300    1
  2075  2006  2301    1
  2076  2007  2302    1
  2077  2007  2303    1
  2078  2007  2304    1
  2079  2009  2010    1
  2080  2010  2011    1
  2081  2010  2305    1
  2082  2010  2306    1
  2083  2011  2012    1
  2084  2011  2023    1
  2085  2011  2307    1
  2086  2012  2308    1
  2087  2012  2309    1
  2088  2012  2310    1
  2089  2013  2014    1
  2090  2014  2015    1
  2091  2014  2018    1
  2092  2014  2311    1
  2093  2015  2016    1
  2094  2015  2312    1
  2095  2015  2313    1
  2096  2016  2017    1
  2097  2016  2314    1
  2098  2016  2315    1
  2099  2017  2025    1
  2100  2018  2019    1
  2101  2018  2316    1
  2102  2018  2317    1
  2103  2019  2020    1
  2104  2019  2318    1
  2105  2019  2319    1
  2106  2020  2021    1
  2107  2020  2320    1
  2108  2020  2321    1
  2109  2021  2022    1
  2110  2021  2322    1
  2111  2021  2323    1
  2112  2022  2023    1
  2113  2022  2024    2
  2114  2026  2027    1
  2115  2026  2037    1
  2116  2026  2324    1
  2117  2026  2325    1
  2118  2027  2028    1
  2119  2027  2326    1
  2120  2027  2327    1
  2121  2028  2029    1
  2122  2028  2328    1
  2123  2028  2329    1
  2124  2029  2030    1
  2125  2029  2330    1
  2126  2029  2331    1
  2127  2030  2031    1
  2128  2030  2332    1
  2129  2030  2333    1
  2130  2031  2032    1
  2131  2031  2334    1
  2132  2031  2335    1
  2133  2032  2033    1
  2134  2032  2336    1
  2135  2032  2337    1
  2136  2033  2034    1
  2137  2033  2338    1
  2138  2033  2339    1
  2139  2034  2035    1
  2140  2034  2340    1
  2141  2034  2341    1
  2142  2035  2036    1
  2143  2035  2342    1
  2144  2035  2343    1
  2145  2036  2040    1
  2146  2036  2344    1
  2147  2036  2345    1
  2148  2037  2346    1
  2149  2037  2347    1
  2150  2037  2348    1
  2151  2038  2039    1
  2152  2038  2042    1
  2153  2038  2043    1
  2154  2038  2349    1
  2155  2039  2040    1
  2156  2039  2041    2
  2157  2042  2350    1
  2158  2042  2351    1
  2159  2042  2352    1
  2160  2043  2353    1
  2161  2043  2354    1
  2162  2044  2355    1
  2163  2044  2356    1
  2164  2044  2357    1
  2165  2045  2047    2
  2166  2046  2047    1
  2167  2046  2358    1
  2168  2047  2048    1
  2169  2048  2049    1
  2170  2048  2359    1
  2171  2048  2360    1
  2172  2049  2050    1
  2173  2049  2361    1
  2174  2049  2362    1
  2175  2050  2051    1
  2176  2050  2363    1
  2177  2050  2364    1
  2178  2051  2076    1
  2179  2051  2365    1
  2180  2051  2366    1
  2181  2052  2053    1
  2182  2052  2108    1
  2183  2053  2054    1
  2184  2053  2367    1
  2185  2053  2368    1
  2186  2054  2076    1
  2187  2054  2369    1
  2188  2054  2370    1
  2189  2055  2056    1
  2190  2055  2059    2
  2191  2055  2060    1
  2192  2056  2057    1
  2193  2056  2058    1
  2194  2056  2139    1
  2195  2057  2138    1
  2196  2057  2371    1
  2197  2057  2372    1
  2198  2058  2373    1
  2199  2058  2374    1
  2200  2058  2375    1
  2201  2060  2061    1
  2202  2061  2062    1
  2203  2061  2376    1
  2204  2061  2377    1
  2205  2062  2063    1
  2206  2062  2073    1
  2207  2062  2378    1
  2208  2063  2379    1
  2209  2063  2380    1
  2210  2063  2381    1
  2211  2064  2065    1
  2212  2064  2068    1
  2213  2064  2120    1
  2214  2064  2382    1
  2215  2065  2066    1
  2216  2065  2383    1
  2217  2065  2384    1
  2218  2066  2067    1
  2219  2066  2385    1
  2220  2066  2386    1
  2221  2067  2098    1
  2222  2068  2069    1
  2223  2068  2387    1
  2224  2068  2388    1
  2225  2069  2070    1
  2226  2069  2389    1
  2227  2069  2390    1
  2228  2070  2071    1
  2229  2070  2391    1
  2230  2070  2392    1
  2231  2071  2072    1
  2232  2071  2393    1
  2233  2071  2394    1
  2234  2072  2073    1
  2235  2072  2074    2
  2236  2075  2076    1
  2237  2075  2185    1
  2238  2076  2395    1
  2239  2077  2078    1
  2240  2077  2081    2
  2241  2077  2082    1
  2242  2078  2079    2
  2243  2078  2080    1
  2244  2079  2396    1
  2245  2079  2397    1
  2246  2080  2398    1
  2247  2080  2399    1
  2248  2080  2400    1
  2249  2082  2083    1
  2250  2083  2084    1
  2251  2083  2401    1
  2252  2083  2402    1
  2253  2084  2085    1
  2254  2084  2095    1
  2255  2084  2403    1
  2256  2085  2404    1
  2257  2085  2405    1
  2258  2085  2406    1
  2259  2086  2087    1
  2260  2086  2090    1
  2261  2086  2098    1
  2262  2086  2407    1
  2263  2087  2088    1
  2264  2087  2408    1
  2265  2087  2409    1
  2266  2088  2089    1
  2267  2088  2410    1
  2268  2088  2411    1
  2269  2089  2097    1
  2270  2090  2091    1
  2271  2090  2412    1
  2272  2090  2413    1
  2273  2091  2092    1
  2274  2091  2414    1
  2275  2091  2415    1
  2276  2092  2093    1
  2277  2092  2416    1
  2278  2092  2417    1
  2279  2093  2094    1
  2280  2093  2418    1
  2281  2093  2419    1
  2282  2094  2095    1
  2283  2094  2096    2
  2284  2099  2100    1
  2285  2099  2103    2
  2286  2099  2104    1
  2287  2100  2101    2
  2288  2100  2102    1
  2289  2101  2420    1
  2290  2101  2421    1
  2291  2102  2422    1
  2292  2102  2423    1
  2293  2102  2424    1
  2294  2104  2105    1
  2295  2105  2106    1
  2296  2105  2425    1
  2297  2105  2426    1
  2298  2106  2107    1
  2299  2106  2118    1
  2300  2106  2427    1
  2301  2107  2428    1
  2302  2107  2429    1
  2303  2107  2430    1
  2304  2108  2109    1
  2305  2109  2110    1
  2306  2109  2113    1
  2307  2109  2431    1
  2308  2110  2111    1
  2309  2110  2432    1
  2310  2110  2433    1
  2311  2111  2112    1
  2312  2111  2434    1
  2313  2111  2435    1
  2314  2112  2120    2
  2315  2113  2114    1
  2316  2113  2436    1
  2317  2113  2437    1
  2318  2114  2115    1
  2319  2114  2438    1
  2320  2114  2439    1
  2321  2115  2116    1
  2322  2115  2440    1
  2323  2115  2441    1
  2324  2116  2117    1
  2325  2116  2442    1
  2326  2116  2443    1
  2327  2117  2118    1
  2328  2117  2119    2
  2329  2121  2122    1
  2330  2121  2132    1
  2331  2121  2444    1
  2332  2121  2445    1
  2333  2122  2123    1
  2334  2122  2446    1
  2335  2122  2447    1
  2336  2123  2124    1
  2337  2123  2448    1
  2338  2123  2449    1
  2339  2124  2125    1
  2340  2124  2450    1
  2341  2124  2451    1
  2342  2125  2126    1
  2343  2125  2452    1
  2344  2125  2453    1
  2345  2126  2127    1
  2346  2126  2454    1
  2347  2126  2455    1
  2348  2127  2128    1
  2349  2127  2456    1
  2350  2127  2457    1
  2351  2128  2129    1
  2352  2128  2458    1
  2353  2128  2459    1
  2354  2129  2130    1
  2355  2129  2460    1
  2356  2129  2461    1
  2357  2130  2131    1
  2358  2130  2462    1
  2359  2130  2463    1
  2360  2131  2135    1
  2361  2131  2464    1
  2362  2131  2465    1
  2363  2132  2466    1
  2364  2132  2467    1
  2365  2132  2468    1
  2366  2133  2134    1
  2367  2133  2137    1
  2368  2133  2138    1
  2369  2133  2469    1
  2370  2134  2135    1
  2371  2134  2136    2
  2372  2137  2470    1
  2373  2137  2471    1
  2374  2137  2472    1
  2375  2138  2473    1
  2376  2138  2474    1
  2377  2139  2475    1
  2378  2139  2476    1
  2379  2139  2477    1
  2380  2140  2142    2
  2381  2141  2142    1
  2382  2141  2478    1
  2383  2142  2143    1
  2384  2143  2144    1
  2385  2143  2479    1
  2386  2143  2480    1
  2387  2144  2145    1
  2388  2144  2481    1
  2389  2144  2482    1
  2390  2145  2146    1
  2391  2145  2483    1
  2392  2145  2484    1
  2393  2146  2171    1
  2394  2146  2485    1
  2395  2146  2486    1
  2396  2147  2148    1
  2397  2147  2203    1
  2398  2148  2149    1
  2399  2148  2487    1
  2400  2148  2488    1
  2401  2149  2171    1
  2402  2149  2489    1
  2403  2149  2490    1
  2404  2150  2151    1
  2405  2150  2154    2
  2406  2150  2155    1
  2407  2151  2152    1
  2408  2151  2153    1
  2409  2151  2234    1
  2410  2152  2233    1
  2411  2152  2491    1
  2412  2152  2492    1
  2413  2153  2493    1
  2414  2153  2494    1
  2415  2153  2495    1
  2416  2155  2156    1
  2417  2156  2157    1
  2418  2156  2496    1
  2419  2156  2497    1
  2420  2157  2158    1
  2421  2157  2168    1
  2422  2157  2498    1
  2423  2158  2499    1
  2424  2158  2500    1
  2425  2158  2501    1
  2426  2159  2160    1
  2427  2159  2163    1
  2428  2159  2215    1
  2429  2159  2502    1
  2430  2160  2161    1
  2431  2160  2503    1
  2432  2160  2504    1
  2433  2161  2162    1
  2434  2161  2505    1
  2435  2161  2506    1
  2436  2162  2193    1
  2437  2163  2164    1
  2438  2163  2507    1
  2439  2163  2508    1
  2440  2164  2165    1
  2441  2164  2509    1
  2442  2164  2510    1
  2443  2165  2166    1
  2444  2165  2511    1
  2445  2165  2512    1
  2446  2166  2167    1
  2447  2166  2513    1
  2448  2166  2514    1
  2449  2167  2168    1
  2450  2167  2169    2
  2451  2170  2171    1
  2452  2170  2172    1
  2453  2171  2515    1
  2454  2172  2516    1
  2455  2172  2517    1
  2456  2172  2518    1
  2457  2173  2174    1
  2458  2173  2177    2
  2459  2173  2178    1
  2460  2174  2175    2
  2461  2174  2176    1
  2462  2175  2519    1
  2463  2175  2520    1
  2464  2176  2521    1
  2465  2176  2522    1
  2466  2176  2523    1
  2467  2178  2179    1
  2468  2179  2180    1
  2469  2179  2524    1
  2470  2179  2525    1
  2471  2180  2181    1
  2472  2180  2191    1
  2473  2180  2526    1
  2474  2181  2527    1
  2475  2181  2528    1
  2476  2181  2529    1
  2477  2182  2183    1
  2478  2182  2186    1
  2479  2182  2193    1
  2480  2182  2530    1
  2481  2183  2184    1
  2482  2183  2531    1
  2483  2183  2532    1
  2484  2184  2185    1
  2485  2184  2533    1
  2486  2184  2534    1
  2487  2186  2187    1
  2488  2186  2535    1
  2489  2186  2536    1
  2490  2187  2188    1
  2491  2187  2537    1
  2492  2187  2538    1
  2493  2188  2189    1
  2494  2188  2539    1
  2495  2188  2540    1
  2496  2189  2190    1
  2497  2189  2541    1
  2498  2189  2542    1
  2499  2190  2191    1
  2500  2190  2192    2
  2501  2194  2195    1
  2502  2194  2198    2
  2503  2194  2199    1
  2504  2195  2196    2
  2505  2195  2197    1
  2506  2196  2543    1
  2507  2196  2544    1
  2508  2197  2545    1
  2509  2197  2546    1
  2510  2197  2547    1
  2511  2199  2200    1
  2512  2200  2201    1
  2513  2200  2548    1
  2514  2200  2549    1
  2515  2201  2202    1
  2516  2201  2213    1
  2517  2201  2550    1
  2518  2202  2551    1
  2519  2202  2552    1
  2520  2202  2553    1
  2521  2203  2204    1
  2522  2204  2205    1
  2523  2204  2208    1
  2524  2204  2554    1
  2525  2205  2206    1
  2526  2205  2555    1
  2527  2205  2556    1
  2528  2206  2207    1
  2529  2206  2557    1
  2530  2206  2558    1
  2531  2207  2215    1
  2532  2208  2209    1
  2533  2208  2559    1
  2534  2208  2560    1
  2535  2209  2210    1
  2536  2209  2561    1
  2537  2209  2562    1
  2538  2210  2211    1
  2539  2210  2563    1
  2540  2210  2564    1
  2541  2211  2212    1
  2542  2211  2565    1
  2543  2211  2566    1
  2544  2212  2213    1
  2545  2212  2214    2
  2546  2216  2217    1
  2547  2216  2227    1
  2548  2216  2567    1
  2549  2216  2568    1
  2550  2217  2218    1
  2551  2217  2569    1
  2552  2217  2570    1
  2553  2218  2219    1
  2554  2218  2571    1
  2555  2218  2572    1
  2556  2219  2220    1
  2557  2219  2573    1
  2558  2219  2574    1
  2559  2220  2221    1
  2560  2220  2575    1
  2561  2220  2576    1
  2562  2221  2222    1
  2563  2221  2577    1
  2564  2221  2578    1
  2565  2222  2223    1
  2566  2222  2579    1
  2567  2222  2580    1
  2568  2223  2224    1
  2569  2223  2581    1
  2570  2223  2582    1
  2571  2224  2225    1
  2572  2224  2583    1
  2573  2224  2584    1
  2574  2225  2226    1
  2575  2225  2585    1
  2576  2225  2586    1
  2577  2226  2230    1
  2578  2226  2587    1
  2579  2226  2588    1
  2580  2227  2589    1
  2581  2227  2590    1
  2582  2227  2591    1
  2583  2228  2229    1
  2584  2228  2232    1
  2585  2228  2233    1
  2586  2228  2592    1
  2587  2229  2230    1
  2588  2229  2231    2
  2589  2232  2593    1
  2590  2232  2594    1
  2591  2232  2595    1
  2592  2233  2596    1
  2593  2233  2597    1
  2594  2234  2598    1
  2595  2234  2599    1
  2596  2234  2600    1
  2597  2601  2603    2
  2598  2602  2603    1
  2599  2602  2885    1
  2600  2603  2604    1
  2601  2604  2605    1
  2602  2604  2886    1
  2603  2604  2887    1
  2604  2605  2606    1
  2605  2605  2888    1
  2606  2605  2889    1
  2607  2606  2607    1
  2608  2606  2890    1
  2609  2606  2891    1
  2610  2607  2631    1
  2611  2607  2892    1
  2612  2607  2893    1
  2613  2608  2609    1
  2614  2608  2663    2
  2615  2609  2610    1
  2616  2609  2894    1
  2617  2609  2895    1
  2618  2610  2631    1
  2619  2610  2896    1
  2620  2610  2897    1
  2621  2611  2612    1
  2622  2611  2615    2
  2623  2611  2616    1
  2624  2612  2613    1
  2625  2612  2614    1
  2626  2612  2694    1
  2627  2613  2693    1
  2628  2613  2898    1
  2629  2613  2899    1
  2630  2614  2900    1
  2631  2614  2901    1
  2632  2614  2902    1
  2633  2616  2617    1
  2634  2617  2618    1
  2635  2617  2903    1
  2636  2617  2904    1
  2637  2618  2619    1
  2638  2618  2629    1
  2639  2618  2905    1
  2640  2619  2906    1
  2641  2619  2907    1
  2642  2619  2908    1
  2643  2620  2621    1
  2644  2620  2624    1
  2645  2620  2675    1
  2646  2620  2909    1
  2647  2621  2622    1
  2648  2621  2910    1
  2649  2621  2911    1
  2650  2622  2623    1
  2651  2622  2912    1
  2652  2622  2913    1
  2653  2623  2653    1
  2654  2624  2625    1
  2655  2624  2914    1
  2656  2624  2915    1
  2657  2625  2626    1
  2658  2625  2916    1
  2659  2625  2917    1
  2660  2626  2627    1
  2661  2626  2918    1
  2662  2626  2919    1
  2663  2627  2628    1
  2664  2627  2920    1
  2665  2627  2921    1
  2666  2628  2629    1
  2667  2628  2630    2
  2668  2631  2747    1
  2669  2631  2922    1
  2670  2632  2633    1
  2671  2632  2636    2
  2672  2632  2637    1
  2673  2633  2634    2
  2674  2633  2635    1
  2675  2634  2923    1
  2676  2634  2924    1
  2677  2635  2925    1
  2678  2635  2926    1
  2679  2635  2927    1
  2680  2637  2638    1
  2681  2638  2639    1
  2682  2638  2928    1
  2683  2638  2929    1
  2684  2639  2640    1
  2685  2639  2650    1
  2686  2639  2930    1
  2687  2640  2931    1
  2688  2640  2932    1
  2689  2640  2933    1
  2690  2641  2642    1
  2691  2641  2645    1
  2692  2641  2653    1
  2693  2641  2934    1
  2694  2642  2643    1
  2695  2642  2935    1
  2696  2642  2936    1
  2697  2643  2644    1
  2698  2643  2937    1
  2699  2643  2938    1
  2700  2644  2652    1
  2701  2645  2646    1
  2702  2645  2939    1
  2703  2645  2940    1
  2704  2646  2647    1
  2705  2646  2941    1
  2706  2646  2942    1
  2707  2647  2648    1
  2708  2647  2943    1
  2709  2647  2944    1
  2710  2648  2649    1
  2711  2648  2945    1
  2712  2648  2946    1
  2713  2649  2650    1
  2714  2649  2651    2
  2715  2652  2947    1
  2716  2652  2948    1
  2717  2652  2949    1
  2718  2654  2655    1
  2719  2654  2658    2
  2720  2654  2659    1
  2721  2655  2656    2
  2722  2655  2657    1
  2723  2656  2950    1
  2724  2656  2951    1
  2725  2657  2952    1
  2726  2657  2953    1
  2727  2657  2954    1
  2728  2659  2660    1
  2729  2660  2661    1
  2730  2660  2955    1
  2731  2660  2956    1
  2732  2661  2662    1
  2733  2661  2673    1
  2734  2661  2957    1
  2735  2662  2958    1
  2736  2662  2959    1
  2737  2662  2960    1
  2738  2663  2664    1
  2739  2664  2665    1
  2740  2664  2668    1
  2741  2664  2961    1
  2742  2665  2666    1
  2743  2665  2962    1
  2744  2665  2963    1
  2745  2666  2667    1
  2746  2666  2964    1
  2747  2666  2965    1
  2748  2667  2675    1
  2749  2668  2669    1
  2750  2668  2966    1
  2751  2668  2967    1
  2752  2669  2670    1
  2753  2669  2968    1
  2754  2669  2969    1
  2755  2670  2671    1
  2756  2670  2970    1
  2757  2670  2971    1
  2758  2671  2672    1
  2759  2671  2972    1
  2760  2671  2973    1
  2761  2672  2673    1
  2762  2672  2674    2
  2763  2676  2677    1
  2764  2676  2687    1
  2765  2676  2974    1
  2766  2676  2975    1
  2767  2677  2678    1
  2768  2677  2976    1
  2769  2677  2977    1
  2770  2678  2679    1
  2771  2678  2978    1
  2772  2678  2979    1
  2773  2679  2680    1
  2774  2679  2980    1
  2775  2679  2981    1
  2776  2680  2681    1
  2777  2680  2982    1
  2778  2680  2983    1
  2779  2681  2682    1
  2780  2681  2984    1
  2781  2681  2985    1
  2782  2682  2683    1
  2783  2682  2986    1
  2784  2682  2987    1
  2785  2683  2684    1
  2786  2683  2988    1
  2787  2683  2989    1
  2788  2684  2685    1
  2789  2684  2990    1
  2790  2684  2991    1
  2791  2685  2686    1
  2792  2685  2992    1
  2793  2685  2993    1
  2794  2686  2690    1
  2795  2686  2994    1
  2796  2686  2995    1
  2797  2687  2996    1
  2798  2687  2997    1
  2799  2687  2998    1
  2800  2688  2689    1
  2801  2688  2692    1
  2802  2688  2693    1
  2803  2688  2999    1
  2804  2689  2690    1
  2805  2689  2691    2
  2806  2692  3000    1
  2807  2692  3001    1
  2808  2692  3002    1
  2809  2693  3003    1
  2810  2693  3004    1
  2811  2694  3005    1
  2812  2694  3006    1
  2813  2694  3007    1
  2814  2695  2697    2
  2815  2696  2697    1
  2816  2696  3008    1
  2817  2697  2698    1
  2818  2698  2699    1
  2819  2698  3009    1
  2820  2698  3010    1
  2821  2699  2700    1
  2822  2699  3011    1
  2823  2699  3012    1
  2824  2700  2701    1
  2825  2700  3013    1
  2826  2700  3014    1
  2827  2701  2726    1
  2828  2701  3015    1
  2829  2701  3016    1
  2830  2702  2703    1
  2831  2702  2758    1
  2832  2703  2704    1
  2833  2703  3017    1
  2834  2703  3018    1
  2835  2704  2726    1
  2836  2704  3019    1
  2837  2704  3020    1
  2838  2705  2706    1
  2839  2705  2709    2
  2840  2705  2710    1
  2841  2706  2707    1
  2842  2706  2708    1
  2843  2706  2789    1
  2844  2707  2788    1
  2845  2707  3021    1
  2846  2707  3022    1
  2847  2708  3023    1
  2848  2708  3024    1
  2849  2708  3025    1
  2850  2710  2711    1
  2851  2711  2712    1
  2852  2711  3026    1
  2853  2711  3027    1
  2854  2712  2713    1
  2855  2712  2723    1
  2856  2712  3028    1
  2857  2713  3029    1
  2858  2713  3030    1
  2859  2713  3031    1
  2860  2714  2715    1
  2861  2714  2718    1
  2862  2714  2770    1
  2863  2714  3032    1
  2864  2715  2716    1
  2865  2715  3033    1
  2866  2715  3034    1
  2867  2716  2717    1
  2868  2716  3035    1
  2869  2716  3036    1
  2870  2717  2748    1
  2871  2718  2719    1
  2872  2718  3037    1
  2873  2718  3038    1
  2874  2719  2720    1
  2875  2719  3039    1
  2876  2719  3040    1
  2877  2720  2721    1
  2878  2720  3041    1
  2879  2720  3042    1
  2880  2721  2722    1
  2881  2721  3043    1
  2882  2721  3044    1
  2883  2722  2723    1
  2884  2722  2724    2
  2885  2725  2726    1
  2886  2725  2835    1
  2887  2726  3045    1
  2888  2727  2728    1
  2889  2727  2731    2
  2890  2727  2732    1
  2891  2728  2729    2
  2892  2728  2730    1
  2893  2729  3046    1
  2894  2729  3047    1
  2895  2730  3048    1
  2896  2730  3049    1
  2897  2730  3050    1
  2898  2732  2733    1
  2899  2733  2734    1
  2900  2733  3051    1
  2901  2733  3052    1
  2902  2734  2735    1
  2903  2734  2745    1
  2904  2734  3053    1
  2905  2735  3054    1
  2906  2735  3055    1
  2907  2735  3056    1
  2908  2736  2737    1
  2909  2736  2740    1
  2910  2736  2748    1
  2911  2736  3057    1
  2912  2737  2738    1
  2913  2737  3058    1
  2914  2737  3059    1
  2915  2738  2739    1
  2916  2738  3060    1
  2917  2738  3061    1
  2918  2739  2747    1
  2919  2740  2741    1
  2920  2740  3062    1
  2921  2740  3063    1
  2922  2741  2742    1
  2923  2741  3064    1
  2924  2741  3065    1
  2925  2742  2743    1
  2926  2742  3066    1
  2927  2742  3067    1
  2928  2743  2744    1
  2929  2743  3068    1
  2930  2743  3069    1
  2931  2744  2745    1
  2932  2744  2746    2
  2933  2749  2750    1
  2934  2749  2753    2
  2935  2749  2754    1
  2936  2750  2751    2
  2937  2750  2752    1
  2938  2751  3070    1
  2939  2751  3071    1
  2940  2752  3072    1
  2941  2752  3073    1
  2942  2752  3074    1
  2943  2754  2755    1
  2944  2755  2756    1
  2945  2755  3075    1
  2946  2755  3076    1
  2947  2756  2757    1
  2948  2756  2768    1
  2949  2756  3077    1
  2950  2757  3078    1
  2951  2757  3079    1
  2952  2757  3080    1
  2953  2758  2759    1
  2954  2759  2760    1
  2955  2759  2763    1
  2956  2759  3081    1
  2957  2760  2761    1
  2958  2760  3082    1
  2959  2760  3083    1
  2960  2761  2762    1
  2961  2761  3084    1
  2962  2761  3085    1
  2963  2762  2770    2
  2964  2763  2764    1
  2965  2763  3086    1
  2966  2763  3087    1
  2967  2764  2765    1
  2968  2764  3088    1
  2969  2764  3089    1
  2970  2765  2766    1
  2971  2765  3090    1
  2972  2765  3091    1
  2973  2766  2767    1
  2974  2766  3092    1
  2975  2766  3093    1
  2976  2767  2768    1
  2977  2767  2769    2
  2978  2771  2772    1
  2979  2771  2782    1
  2980  2771  3094    1
  2981  2771  3095    1
  2982  2772  2773    1
  2983  2772  3096    1
  2984  2772  3097    1
  2985  2773  2774    1
  2986  2773  3098    1
  2987  2773  3099    1
  2988  2774  2775    1
  2989  2774  3100    1
  2990  2774  3101    1
  2991  2775  2776    1
  2992  2775  3102    1
  2993  2775  3103    1
  2994  2776  2777    1
  2995  2776  3104    1
  2996  2776  3105    1
  2997  2777  2778    1
  2998  2777  3106    1
  2999  2777  3107    1
  3000  2778  2779    1
  3001  2778  3108    1
  3002  2778  3109    1
  3003  2779  2780    1
  3004  2779  3110    1
  3005  2779  3111    1
  3006  2780  2781    1
  3007  2780  3112    1
  3008  2780  3113    1
  3009  2781  2785    1
  3010  2781  3114    1
  3011  2781  3115    1
  3012  2782  3116    1
  3013  2782  3117    1
  3014  2782  3118    1
  3015  2783  2784    1
  3016  2783  2787    1
  3017  2783  2788    1
  3018  2783  3119    1
  3019  2784  2785    1
  3020  2784  2786    2
  3021  2787  3120    1
  3022  2787  3121    1
  3023  2787  3122    1
  3024  2788  3123    1
  3025  2788  3124    1
  3026  2789  3125    1
  3027  2789  3126    1
  3028  2789  3127    1
  3029  2790  2792    2
  3030  2791  2792    1
  3031  2791  3128    1
  3032  2792  2793    1
  3033  2793  2794    1
  3034  2793  3129    1
  3035  2793  3130    1
  3036  2794  2795    1
  3037  2794  3131    1
  3038  2794  3132    1
  3039  2795  2796    1
  3040  2795  3133    1
  3041  2795  3134    1
  3042  2796  2821    1
  3043  2796  3135    1
  3044  2796  3136    1
  3045  2797  2798    1
  3046  2797  2853    1
  3047  2798  2799    1
  3048  2798  3137    1
  3049  2798  3138    1
  3050  2799  2821    1
  3051  2799  3139    1
  3052  2799  3140    1
  3053  2800  2801    1
  3054  2800  2804    2
  3055  2800  2805    1
  3056  2801  2802    1
  3057  2801  2803    1
  3058  2801  2884    1
  3059  2802  2883    1
  3060  2802  3141    1
  3061  2802  3142    1
  3062  2803  3143    1
  3063  2803  3144    1
  3064  2803  3145    1
  3065  2805  2806    1
  3066  2806  2807    1
  3067  2806  3146    1
  3068  2806  3147    1
  3069  2807  2808    1
  3070  2807  2818    1
  3071  2807  3148    1
  3072  2808  3149    1
  3073  2808  3150    1
  3074  2808  3151    1
  3075  2809  2810    1
  3076  2809  2813    1
  3077  2809  2865    1
  3078  2809  3152    1
  3079  2810  2811    1
  3080  2810  3153    1
  3081  2810  3154    1
  3082  2811  2812    1
  3083  2811  3155    1
  3084  2811  3156    1
  3085  2812  2843    1
  3086  2813  2814    1
  3087  2813  3157    1
  3088  2813  3158    1
  3089  2814  2815    1
  3090  2814  3159    1
  3091  2814  3160    1
  3092  2815  2816    1
  3093  2815  3161    1
  3094  2815  3162    1
  3095  2816  2817    1
  3096  2816  3163    1
  3097  2816  3164    1
  3098  2817  2818    1
  3099  2817  2819    2
  3100  2820  2821    1
  3101  2820  2822    1
  3102  2821  3165    1
  3103  2822  3166    1
  3104  2822  3167    1
  3105  2822  3168    1
  3106  2823  2824    1
  3107  2823  2827    2
  3108  2823  2828    1
  3109  2824  2825    2
  3110  2824  2826    1
  3111  2825  3169    1
  3112  2825  3170    1
  3113  2826  3171    1
  3114  2826  3172    1
  3115  2826  3173    1
  3116  2828  2829    1
  3117  2829  2830    1
  3118  2829  3174    1
  3119  2829  3175    1
  3120  2830  2831    1
  3121  2830  2841    1
  3122  2830  3176    1
  3123  2831  3177    1
  3124  2831  3178    1
  3125  2831  3179    1
  3126  2832  2833    1
  3127  2832  2836    1
  3128  2832  2843    1
  3129  2832  3180    1
  3130  2833  2834    1
  3131  2833  3181    1
  3132  2833  3182    1
  3133  2834  2835    1
  3134  2834  3183    1
  3135  2834  3184    1
  3136  2836  2837    1
  3137  2836  3185    1
  3138  2836  3186    1
  3139  2837  2838    1
  3140  2837  3187    1
  3141  2837  3188    1
  3142  2838  2839    1
  3143  2838  3189    1
  3144  2838  3190    1
  3145  2839  2840    1
  3146  2839  3191    1
  3147  2839  3192    1
  3148  2840  2841    1
  3149  2840  2842    2
  3150  2844  2845    1
  3151  2844  2848    2
  3152  2844  2849    1
  3153  2845  2846    2
  3154  2845  2847    1
  3155  2846  3193    1
  3156  2846  3194    1
  3157  2847  3195    1
  3158  2847  3196    1
  3159  2847  3197    1
  3160  2849  2850    1
  3161  2850  2851    1
  3162  2850  3198    1
  3163  2850  3199    1
  3164  2851  2852    1
  3165  2851  2863    1
  3166  2851  3200    1
  3167  2852  3201    1
  3168  2852  3202    1
  3169  2852  3203    1
  3170  2853  2854    1
  3171  2854  2855    1
  3172  2854  2858    1
  3173  2854  3204    1
  3174  2855  2856    1
  3175  2855  3205    1
  3176  2855  3206    1
  3177  2856  2857    1
  3178  2856  3207    1
  3179  2856  3208    1
  3180  2857  2865    1
  3181  2858  2859    1
  3182  2858  3209    1
  3183  2858  3210    1
  3184  2859  2860    1
  3185  2859  3211    1
  3186  2859  3212    1
  3187  2860  2861    1
  3188  2860  3213    1
  3189  2860  3214    1
  3190  2861  2862    1
  3191  2861  3215    1
  3192  2861  3216    1
  3193  2862  2863    1
  3194  2862  2864    2
  3195  2866  2867    1
  3196  2866  2877    1
  3197  2866  3217    1
  3198  2866  3218    1
  3199  2867  2868    1
  3200  2867  3219    1
  3201  2867  3220    1
  3202  2868  2869    1
  3203  2868  3221    1
  3204  2868  3222    1
  3205  2869  2870    1
  3206  2869  3223    1
  3207  2869  3224    1
  3208  2870  2871    1
  3209  2870  3225    1
  3210  2870  3226    1
  3211  2871  2872    1
  3212  2871  3227    1
  3213  2871  3228    1
  3214  2872  2873    1
  3215  2872  3229    1
  3216  2872  3230    1
  3217  2873  2874    1
  3218  2873  3231    1
  3219  2873  3232    1
  3220  2874  2875    1
  3221  2874  3233    1
  3222  2874  3234    1
  3223  2875  2876    1
  3224  2875  3235    1
  3225  2875  3236    1
  3226  2876  2880    1
  3227  2876  3237    1
  3228  2876  3238    1
  3229  2877  3239    1
  3230  2877  3240    1
  3231  2877  3241    1
  3232  2878  2879    1
  3233  2878  2882    1
  3234  2878  2883    1
  3235  2878  3242    1
  3236  2879  2880    1
  3237  2879  2881    2
  3238  2882  3243    1
  3239  2882  3244    1
  3240  2882  3245    1
  3241  2883  3246    1
  3242  2883  3247    1
  3243  2884  3248    1
  3244  2884  3249    1
  3245  2884  3250    1
  3246  3251  3253    2
  3247  3252  3253    1
  3248  3252  3535    1
  3249  3253  3254    1
  3250  3254  3255    1
  3251  3254  3536    1
  3252  3254  3537    1
  3253  3255  3256    1
  3254  3255  3538    1
  3255  3255  3539    1
  3256  3256  3257    1
  3257  3256  3540    1
  3258  3256  3541    1
  3259  3257  3281    1
  3260  3257  3542    1
  3261  3257  3543    1
  3262  3258  3259    1
  3263  3258  3313    2
  3264  3259  3260    1
  3265  3259  3544    1
  3266  3259  3545    1
  3267  3260  3281    1
  3268  3260  3546    1
  3269  3260  3547    1
  3270  3261  3262    1
  3271  3261  3265    2
  3272  3261  3266    1
  3273  3262  3263    1
  3274  3262  3264    1
  3275  3262  3344    1
  3276  3263  3343    1
  3277  3263  3548    1
  3278  3263  3549    1
  3279  3264  3550    1
  3280  3264  3551    1
  3281  3264  3552    1
  3282  3266  3267    1
  3283  3267  3268    1
  3284  3267  3553    1
  3285  3267  3554    1
  3286  3268  3269    1
  3287  3268  3279    1
  3288  3268  3555    1
  3289  3269  3556    1
  3290  3269  3557    1
  3291  3269  3558    1
  3292  3270  3271    1
  3293  3270  3274    1
  3294  3270  3325    1
  3295  3270  3559    1
  3296  3271  3272    1
  3297  3271  3560    1
  3298  3271  3561    1
  3299  3272  3273    1
  3300  3272  3562    1
  3301  3272  3563    1
  3302  3273  3303    1
  3303  3274  3275    1
  3304  3274  3564    1
  3305  3274  3565    1
  3306  3275  3276    1
  3307  3275  3566    1
  3308  3275  3567    1
  3309  3276  3277    1
  3310  3276  3568    1
  3311  3276  3569    1
  3312  3277  3278    1
  3313  3277  3570    1
  3314  3277  3571    1
  3315  3278  3279    1
  3316  3278  3280    2
  3317  3281  3397    1
  3318  3281  3572    1
  3319  3282  3283    1
  3320  3282  3286    2
  3321  3282  3287    1
  3322  3283  3284    2
  3323  3283  3285    1
  3324  3284  3573    1
  3325  3284  3574    1
  3326  3285  3575    1
  3327  3285  3576    1
  3328  3285  3577    1
  3329  3287  3288    1
  3330  3288  3289    1
  3331  3288  3578    1
  3332  3288  3579    1
  3333  3289  3290    1
  3334  3289  3300    1
  3335  3289  3580    1
  3336  3290  3581    1
  3337  3290  3582    1
  3338  3290  3583    1
  3339  3291  3292    1
  3340  3291  3295    1
  3341  3291  3303    1
  3342  3291  3584    1
  3343  3292  3293    1
  3344  3292  3585    1
  3345  3292  3586    1
  3346  3293  3294    1
  3347  3293  3587    1
  3348  3293  3588    1
  3349  3294  3302    1
  3350  3295  3296    1
  3351  3295  3589    1
  3352  3295  3590    1
  3353  3296  3297    1
  3354  3296  3591    1
  3355  3296  3592    1
  3356  3297  3298    1
  3357  3297  3593    1
  3358  3297  3594    1
  3359  3298  3299    1
  3360  3298  3595    1
  3361  3298  3596    1
  3362  3299  3300    1
  3363  3299  3301    2
  3364  3302  3597    1
  3365  3302  3598    1
  3366  3302  3599    1
  3367  3304  3305    1
  3368  3304  3308    2
  3369  3304  3309    1
  3370  3305  3306    2
  3371  3305  3307    1
  3372  3306  3600    1
  3373  3306  3601    1
  3374  3307  3602    1
  3375  3307  3603    1
  3376  3307  3604    1
  3377  3309  3310    1
  3378  3310  3311    1
  3379  3310  3605    1
  3380  3310  3606    1
  3381  3311  3312    1
  3382  3311  3323    1
  3383  3311  3607    1
  3384  3312  3608    1
  3385  3312  3609    1
  3386  3312  3610    1
  3387  3313  3314    1
  3388  3314  3315    1
  3389  3314  3318    1
  3390  3314  3611    1
  3391  3315  3316    1
  3392  3315  3612    1
  3393  3315  3613    1
  3394  3316  3317    1
  3395  3316  3614    1
  3396  3316  3615    1
  3397  3317  3325    1
  3398  3318  3319    1
  3399  3318  3616    1
  3400  3318  3617    1
  3401  3319  3320    1
  3402  3319  3618    1
  3403  3319  3619    1
  3404  3320  3321    1
  3405  3320  3620    1
  3406  3320  3621    1
  3407  3321  3322    1
  3408  3321  3622    1
  3409  3321  3623    1
  3410  3322  3323    1
  3411  3322  3324    2
  3412  3326  3327    1
  3413  3326  3337    1
  3414  3326  3624    1
  3415  3326  3625    1
  3416  3327  3328    1
  3417  3327  3626    1
  3418  3327  3627    1
  3419  3328  3329    1
  3420  3328  3628    1
  3421  3328  3629    1
  3422  3329  3330    1
  3423  3329  3630    1
  3424  3329  3631    1
  3425  3330  3331    1
  3426  3330  3632    1
  3427  3330  3633    1
  3428  3331  3332    1
  3429  3331  3634    1
  3430  3331  3635    1
  3431  3332  3333    1
  3432  3332  3636    1
  3433  3332  3637    1
  3434  3333  3334    1
  3435  3333  3638    1
  3436  3333  3639    1
  3437  3334  3335    1
  3438  3334  3640    1
  3439  3334  3641    1
  3440  3335  3336    1
  3441  3335  3642    1
  3442  3335  3643    1
  3443  3336  3340    1
  3444  3336  3644    1
  3445  3336  3645    1
  3446  3337  3646    1
  3447  3337  3647    1
  3448  3337  3648    1
  3449  3338  3339    1
  3450  3338  3342    1
  3451  3338  3343    1
  3452  3338  3649    1
  3453  3339  3340    1
  3454  3339  3341    2
  3455  3342  3650    1
  3456  3342  3651    1
  3457  3342  3652    1
  3458  3343  3653    1
  3459  3343  3654    1
  3460  3344  3655    1
  3461  3344  3656    1
  3462  3344  3657    1
  3463  3345  3347    2
  3464  3346  3347    1
  3465  3346  3658    1
  3466  3347  3348    1
  3467  3348  3349    1
  3468  3348  3659    1
  3469  3348  3660    1
  3470  3349  3350    1
  3471  3349  3661    1
  3472  3349  3662    1
  3473  3350  3351    1
  3474  3350  3663    1
  3475  3350  3664    1
  3476  3351  3376    1
  3477  3351  3665    1
  3478  3351  3666    1
  3479  3352  3353    1
  3480  3352  3408    1
  3481  3353  3354    1
  3482  3353  3667    1
  3483  3353  3668    1
  3484  3354  3376    1
  3485  3354  3669    1
  3486  3354  3670    1
  3487  3355  3356    1
  3488  3355  3359    2
  3489  3355  3360    1
  3490  3356  3357    1
  3491  3356  3358    1
  3492  3356  3439    1
  3493  3357  3438    1
  3494  3357  3671    1
  3495  3357  3672    1
  3496  3358  3673    1
  3497  3358  3674    1
  3498  3358  3675    1
  3499  3360  3361    1
  3500  3361  3362    1
  3501  3361  3676    1
  3502  3361  3677    1
  3503  3362  3363    1
  3504  3362  3373    1
  3505  3362  3678    1
  3506  3363  3679    1
  3507  3363  3680    1
  3508  3363  3681    1
  3509  3364  3365    1
  3510  3364  3368    1
  3511  3364  3420    1
  3512  3364  3682    1
  3513  3365  3366    1
  3514  3365  3683    1
  3515  3365  3684    1
  3516  3366  3367    1
  3517  3366  3685    1
  3518  3366  3686    1
  3519  3367  3398    1
  3520  3368  3369    1
  3521  3368  3687    1
  3522  3368  3688    1
  3523  3369  3370    1
  3524  3369  3689    1
  3525  3369  3690    1
  3526  3370  3371    1
  3527  3370  3691    1
  3528  3370  3692    1
  3529  3371  3372    1
  3530  3371  3693    1
  3531  3371  3694    1
  3532  3372  3373    1
  3533  3372  3374    2
  3534  3375  3376    1
  3535  3375  3485    1
  3536  3376  3695    1
  3537  3377  3378    1
  3538  3377  3381    2
  3539  3377  3382    1
  3540  3378  3379    2
  3541  3378  3380    1
  3542  3379  3696    1
  3543  3379  3697    1
  3544  3380  3698    1
  3545  3380  3699    1
  3546  3380  3700    1
  3547  3382  3383    1
  3548  3383  3384    1
  3549  3383  3701    1
  3550  3383  3702    1
  3551  3384  3385    1
  3552  3384  3395    1
  3553  3384  3703    1
  3554  3385  3704    1
  3555  3385  3705    1
  3556  3385  3706    1
  3557  3386  3387    1
  3558  3386  3390    1
  3559  3386  3398    1
  3560  3386  3707    1
  3561  3387  3388    1
  3562  3387  3708    1
  3563  3387  3709    1
  3564  3388  3389    1
  3565  3388  3710    1
  3566  3388  3711    1
  3567  3389  3397    1
  3568  3390  3391    1
  3569  3390  3712    1
  3570  3390  3713    1
  3571  3391  3392    1
  3572  3391  3714    1
  3573  3391  3715    1
  3574  3392  3393    1
  3575  3392  3716    1
  3576  3392  3717    1
  3577  3393  3394    1
  3578  3393  3718    1
  3579  3393  3719    1
  3580  3394  3395    1
  3581  3394  3396    2
  3582  3399  3400    1
  3583  3399  3403    2
  3584  3399  3404    1
  3585  3400  3401    2
  3586  3400  3402    1
  3587  3401  3720    1
  3588  3401  3721    1
  3589  3402  3722    1
  3590  3402  3723    1
  3591  3402  3724    1
  3592  3404  3405    1
  3593  3405  3406    1
  3594  3405  3725    1
  3595  3405  3726    1
  3596  3406  3407    1
  3597  3406  3418    1
  3598  3406  3727    1
  3599  3407  3728    1
  3600  3407  3729    1
  3601  3407  3730    1
  3602  3408  3409    1
  3603  3409  3410    1
  3604  3409  3413    1
  3605  3409  3731    1
  3606  3410  3411    1
  3607  3410  3732    1
  3608  3410  3733    1
  3609  3411  3412    1
  3610  3411  3734    1
  3611  3411  3735    1
  3612  3412  3420    2
  3613  3413  3414    1
  3614  3413  3736    1
  3615  3413  3737    1
  3616  3414  3415    1
  3617  3414  3738    1
  3618  3414  3739    1
  3619  3415  3416    1
  3620  3415  3740    1
  3621  3415  3741    1
  3622  3416  3417    1
  3623  3416  3742    1
  3624  3416  3743    1
  3625  3417  3418    1
  3626  3417  3419    2
  3627  3421  3422    1
  3628  3421  3432    1
  3629  3421  3744    1
  3630  3421  3745    1
  3631  3422  3423    1
  3632  3422  3746    1
  3633  3422  3747    1
  3634  3423  3424    1
  3635  3423  3748    1
  3636  3423  3749    1
  3637  3424  3425    1
  3638  3424  3750    1
  3639  3424  3751    1
  3640  3425  3426    1
  3641  3425  3752    1
  3642  3425  3753    1
  3643  3426  3427    1
  3644  3426  3754    1
  3645  3426  3755    1
  3646  3427  3428    1
  3647  3427  3756    1
  3648  3427  3757    1
  3649  3428  3429    1
  3650  3428  3758    1
  3651  3428  3759    1
  3652  3429  3430    1
  3653  3429  3760    1
  3654  3429  3761    1
  3655  3430  3431    1
  3656  3430  3762    1
  3657  3430  3763    1
  3658  3431  3435    1
  3659  3431  3764    1
  3660  3431  3765    1
  3661  3432  3766    1
  3662  3432  3767    1
  3663  3432  3768    1
  3664  3433  3434    1
  3665  3433  3437    1
  3666  3433  3438    1
  3667  3433  3769    1
  3668  3434  3435    1
  3669  3434  3436    2
  3670  3437  3770    1
  3671  3437  3771    1
  3672  3437  3772    1
  3673  3438  3773    1
  3674  3438  3774    1
  3675  3439  3775    1
  3676  3439  3776    1
  3677  3439  3777    1
  3678  3440  3442    2
  3679  3441  3442    1
  3680  3441  3778    1
  3681  3442  3443    1
  3682  3443  3444    1
  3683  3443  3779    1
  3684  3443  3780    1
  3685  3444  3445    1
  3686  3444  3781    1
  3687  3444  3782    1
  3688  3445  3446    1
  3689  3445  3783    1
  3690  3445  3784    1
  3691  3446  3471    1
  3692  3446  3785    1
  3693  3446  3786    1
  3694  3447  3448    1
  3695  3447  3503    1
  3696  3448  3449    1
  3697  3448  3787    1
  3698  3448  3788    1
  3699  3449  3471    1
  3700  3449  3789    1
  3701  3449  3790    1
  3702  3450  3451    1
  3703  3450  3454    2
  3704  3450  3455    1
  3705  3451  3452    1
  3706  3451  3453    1
  3707  3451  3534    1
  3708  3452  3533    1
  3709  3452  3791    1
  3710  3452  3792    1
  3711  3453  3793    1
  3712  3453  3794    1
  3713  3453  3795    1
  3714  3455  3456    1
  3715  3456  3457    1
  3716  3456  3796    1
  3717  3456  3797    1
  3718  3457  3458    1
  3719  3457  3468    1
  3720  3457  3798    1
  3721  3458  3799    1
  3722  3458  3800    1
  3723  3458  3801    1
  3724  3459  3460    1
  3725  3459  3463    1
  3726  3459  3515    1
  3727  3459  3802    1
  3728  3460  3461    1
  3729  3460  3803    1
  3730  3460  3804    1
  3731  3461  3462    1
  3732  3461  3805    1
  3733  3461  3806    1
  3734  3462  3493    1
  3735  3463  3464    1
  3736  3463  3807    1
  3737  3463  3808    1
  3738  3464  3465    1
  3739  3464  3809    1
  3740  3464  3810    1
  3741  3465  3466    1
  3742  3465  3811    1
  3743  3465  3812    1
  3744  3466  3467    1
  3745  3466  3813    1
  3746  3466  3814    1
  3747  3467  3468    1
  3748  3467  3469    2
  3749  3470  3471    1
  3750  3470  3472    1
  3751  3471  3815    1
  3752  3472  3816    1
  3753  3472  3817    1
  3754  3472  3818    1
  3755  3473  3474    1
  3756  3473  3477    2
  3757  3473  3478    1
  3758  3474  3475    2
  3759  3474  3476    1
  3760  3475  3819    1
  3761  3475  3820    1
  3762  3476  3821    1
  3763  3476  3822    1
  3764  3476  3823    1
  3765  3478  3479    1
  3766  3479  3480    1
  3767  3479  3824    1
  3768  3479  3825    1
  3769  3480  3481    1
  3770  3480  3491    1
  3771  3480  3826    1
  3772  3481  3827    1
  3773  3481  3828    1
  3774  3481  3829    1
  3775  3482  3483    1
  3776  3482  3486    1
  3777  3482  3493    1
  3778  3482  3830    1
  3779  3483  3484    1
  3780  3483  3831    1
  3781  3483  3832    1
  3782  3484  3485    1
  3783  3484  3833    1
  3784  3484  3834    1
  3785  3486  3487    1
  3786  3486  3835    1
  3787  3486  3836    1
  3788  3487  3488    1
  3789  3487  3837    1
  3790  3487  3838    1
  3791  3488  3489    1
  3792  3488  3839    1
  3793  3488  3840    1
  3794  3489  3490    1
  3795  3489  3841    1
  3796  3489  3842    1
  3797  3490  3491    1
  3798  3490  3492    2
  3799  3494  3495    1
  3800  3494  3498    2
  3801  3494  3499    1
  3802  3495  3496    2
  3803  3495  3497    1
  3804  3496  3843    1
  3805  3496  3844    1
  3806  3497  3845    1
  3807  3497  3846    1
  3808  3497  3847    1
  3809  3499  3500    1
  3810  3500  3501    1
  3811  3500  3848    1
  3812  3500  3849    1
  3813  3501  3502    1
  3814  3501  3513    1
  3815  3501  3850    1
  3816  3502  3851    1
  3817  3502  3852    1
  3818  3502  3853    1
  3819  3503  3504    1
  3820  3504  3505    1
  3821  3504  3508    1
  3822  3504  3854    1
  3823  3505  3506    1
  3824  3505  3855    1
  3825  3505  3856    1
  3826  3506  3507    1
  3827  3506  3857    1
  3828  3506  3858    1
  3829  3507  3515    1
  3830  3508  3509    1
  3831  3508  3859    1
  3832  3508  3860    1
  3833  3509  3510    1
  3834  3509  3861    1
  3835  3509  3862    1
  3836  3510  3511    1
  3837  3510  3863    1
  3838  3510  3864    1
  3839  3511  3512    1
  3840  3511  3865    1
  3841  3511  3866    1
  3842  3512  3513    1
  3843  3512  3514    2
  3844  3516  3517    1
  3845  3516  3527    1
  3846  3516  3867    1
  3847  3516  3868    1
  3848  3517  3518    1
  3849  3517  3869    1
  3850  3517  3870    1
  3851  3518  3519    1
  3852  3518  3871    1
  3853  3518  3872    1
  3854  3519  3520    1
  3855  3519  3873    1
  3856  3519  3874    1
  3857  3520  3521    1
  3858  3520  3875    1
  3859  3520  3876    1
  3860  3521  3522    1
  3861  3521  3877    1
  3862  3521  3878    1
  3863  3522  3523    1
  3864  3522  3879    1
  3865  3522  3880    1
  3866  3523  3524    1
  3867  3523  3881    1
  3868  3523  3882    1
  3869  3524  3525    1
  3870  3524  3883    1
  3871  3524  3884    1
  3872  3525  3526    1
  3873  3525  3885    1
  3874  3525  3886    1
  3875  3526  3530    1
  3876  3526  3887    1
  3877  3526  3888    1
  3878  3527  3889    1
  3879  3527  3890    1
  3880  3527  3891    1
  3881  3528  3529    1
  3882  3528  3532    1
  3883  3528  3533    1
  3884  3528  3892    1
  3885  3529  3530    1
  3886  3529  3531    2
  3887  3532  3893    1
  3888  3532  3894    1
  3889  3532  3895    1
  3890  3533  3896    1
  3891  3533  3897    1
  3892  3534  3898    1
  3893  3534  3899    1
  3894  3534  3900    1
  3895  3901  3903    2
  3896  3902  3903    1
  3897  3902  4185    1
  3898  3903  3904    1
  3899  3904  3905    1
  3900  3904  4186    1
  3901  3904  4187    1
  3902  3905  3906    1
  3903  3905  4188    1
  3904  3905  4189    1
  3905  3906  3907    1
  3906  3906  4190    1
  3907  3906  4191    1
  3908  3907  3931    1
  3909  3907  4192    1
  3910  3907  4193    1
  3911  3908  3909    1
  3912  3908  3963    2
  3913  3909  3910    1
  3914  3909  4194    1
  3915  3909  4195    1
  3916  3910  3931    1
  3917  3910  4196    1
  3918  3910  4197    1
  3919  3911  3912    1
  3920  3911  3915    2
  3921  3911  3916    1
  3922  3912  3913    1
  3923  3912  3914    1
  3924  3912  3994    1
  3925  3913  3993    1
  3926  3913  4198    1
  3927  3913  4199    1
  3928  3914  4200    1
  3929  3914  4201    1
  3930  3914  4202    1
  3931  3916  3917    1
  3932  3917  3918    1
  3933  3917  4203    1
  3934  3917  4204    1
  3935  3918  3919    1
  3936  3918  3929    1
  3937  3918  4205    1
  3938  3919  4206    1
  3939  3919  4207    1
  3940  3919  4208    1
  3941  3920  3921    1
  3942  3920  3924    1
  3943  3920  3975    1
  3944  3920  4209    1
  3945  3921  3922    1
  3946  3921  4210    1
  3947  3921  4211    1
  3948  3922  3923    1
  3949  3922  4212    1
  3950  3922  4213    1
  3951  3923  3953    1
  3952  3924  3925    1
  3953  3924  4214    1
  3954  3924  4215    1
  3955  3925  3926    1
  3956  3925  4216    1
  3957  3925  4217    1
  3958  3926  3927    1
  3959  3926  4218    1
  3960  3926  4219    1
  3961  3927  3928    1
  3962  3927  4220    1
  3963  3927  4221    1
  3964  3928  3929    1
  3965  3928  3930    2
  3966  3931  4047    1
  3967  3931  4222    1
  3968  3932  3933    1
  3969  3932  3936    2
  3970  3932  3937    1
  3971  3933  3934    2
  3972  3933  3935    1
  3973  3934  4223    1
  3974  3934  4224    1
  3975  3935  4225    1
  3976  3935  4226    1
  3977  3935  4227    1
  3978  3937  3938    1
  3979  3938  3939    1
  3980  3938  4228    1
  3981  3938  4229    1
  3982  3939  3940    1
  3983  3939  3950    1
  3984  3939  4230    1
  3985  3940  4231    1
  3986  3940  4232    1
  3987  3940  4233    1
  3988  3941  3942    1
  3989  3941  3945    1
  3990  3941  3953    1
  3991  3941  4234    1
  3992  3942  3943    1
  3993  3942  4235    1
  3994  3942  4236    1
  3995  3943  3944    1
  3996  3943  4237    1
  3997  3943  4238    1
  3998  3944  3952    1
  3999  3945  3946    1
  4000  3945  4239    1
  4001  3945  4240    1
  4002  3946  3947    1
  4003  3946  4241    1
  4004  3946  4242    1
  4005  3947  3948    1
  4006  3947  4243    1
  4007  3947  4244    1
  4008  3948  3949    1
  4009  3948  4245    1
  4010  3948  4246    1
  4011  3949  3950    1
  4012  3949  3951    2
  4013  3952  4247    1
  4014  3952  4248    1
  4015  3952  4249    1
  4016  3954  3955    1
  4017  3954  3958    2
  4018  3954  3959    1
  4019  3955  3956    2
  4020  3955  3957    1
  4021  3956  4250    1
  4022  3956  4251    1
  4023  3957  4252    1
  4024  3957  4253    1
  4025  3957  4254    1
  4026  3959  3960    1
  4027  3960  3961    1
  4028  3960  4255    1
  4029  3960  4256    1
  4030  3961  3962    1
  4031  3961  3973    1
  4032  3961  4257    1
  4033  3962  4258    1
  4034  3962  4259    1
  4035  3962  4260    1
  4036  3963  3964    1
  4037  3964  3965    1
  4038  3964  3968    1
  4039  3964  4261    1
  4040  3965  3966    1
  4041  3965  4262    1
  4042  3965  4263    1
  4043  3966  3967    1
  4044  3966  4264    1
  4045  3966  4265    1
  4046  3967  3975    1
  4047  3968  3969    1
  4048  3968  4266    1
  4049  3968  4267    1
  4050  3969  3970    1
  4051  3969  4268    1
  4052  3969  4269    1
  4053  3970  3971    1
  4054  3970  4270    1
  4055  3970  4271    1
  4056  3971  3972    1
  4057  3971  4272    1
  4058  3971  4273    1
  4059  3972  3973    1
  4060  3972  3974    2
  4061  3976  3977    1
  4062  3976  3987    1
  4063  3976  4274    1
  4064  3976  4275    1
  4065  3977  3978    1
  4066  3977  4276    1
  4067  3977  4277    1
  4068  3978  3979    1
  4069  3978  4278    1
  4070  3978  4279    1
  4071  3979  3980    1
  4072  3979  4280    1
  4073  3979  4281    1
  4074  3980  3981    1
  4075  3980  4282    1
  4076  3980  4283    1
  4077  3981  3982    1
  4078  3981  4284    1
  4079  3981  4285    1
  4080  3982  3983    1
  4081  3982  4286    1
  4082  3982  4287    1
  4083  3983  3984    1
  4084  3983  4288    1
  4085  3983  4289    1
  4086  3984  3985    1
  4087  3984  4290    1
  4088  3984  4291    1
  4089  3985  3986    1
  4090  3985  4292    1
  4091  3985  4293    1
  4092  3986  3990    1
  4093  3986  4294    1
  4094  3986  4295    1
  4095  3987  4296    1
  4096  3987  4297    1
  4097  3987  4298    1
  4098  3988  3989    1
  4099  3988  3992    1
  4100  3988  3993    1
  4101  3988  4299    1
  4102  3989  3990    1
  4103  3989  3991    2
  4104  3992  4300    1
  4105  3992  4301    1
  4106  3992  4302    1
  4107  3993  4303    1
  4108  3993  4304    1
  4109  3994  4305    1
  4110  3994  4306    1
  4111  3994  4307    1
  4112  3995  3997    2
  4113  3996  3997    1
  4114  3996  4308    1
  4115  3997  3998    1
  4116  3998  3999    1
  4117  3998  4309    1
  4118  3998  4310    1
  4119  3999  4000    1
  4120  3999  4311    1
  4121  3999  4312    1
  4122  4000  4001    1
  4123  4000  4313    1
  4124  4000  4314    1
  4125  4001  4026    1
  4126  4001  4315    1
  4127  4001  4316    1
  4128  4002  4003    1
  4129  4002  4058    1
  4130  4003  4004    1
  4131  4003  4317    1
  4132  4003  4318    1
  4133  4004  4026    1
  4134  4004  4319    1
  4135  4004  4320    1
  4136  4005  4006    1
  4137  4005  4009    2
  4138  4005  4010    1
  4139  4006  4007    1
  4140  4006  4008    1
  4141  4006  4089    1
  4142  4007  4088    1
  4143  4007  4321    1
  4144  4007  4322    1
  4145  4008  4323    1
  4146  4008  4324    1
  4147  4008  4325    1
  4148  4010  4011    1
  4149  4011  4012    1
  4150  4011  4326    1
  4151  4011  4327    1
  4152  4012  4013    1
  4153  4012  4023    1
  4154  4012  4328    1
  4155  4013  4329    1
  4156  4013  4330    1
  4157  4013  4331    1
  4158  4014  4015    1
  4159  4014  4018    1
  4160  4014  4070    1
  4161  4014  4332    1
  4162  4015  4016    1
  4163  4015  4333    1
  4164  4015  4334    1
  4165  4016  4017    1
  4166  4016  4335    1
  4167  4016  4336    1
  4168  4017  4048    1
  4169  4018  4019    1
  4170  4018  4337    1
  4171  4018  4338    1
  4172  4019  4020    1
  4173  4019  4339    1
  4174  4019  4340    1
  4175  4020  4021    1
  4176  4020  4341    1
  4177  4020  4342    1
  4178  4021  4022    1
  4179  4021  4343    1
  4180  4021  4344    1
  4181  4022  4023    1
  4182  4022  4024    2
  4183  4025  4026    1
  4184  4025  4135    1
  4185  4026  4345    1
  4186  4027  4028    1
  4187  4027  4031    2
  4188  4027  4032    1
  4189  4028  4029    2
  4190  4028  4030    1
  4191  4029  4346    1
  4192  4029  4347    1
  4193  4030  4348    1
  4194  4030  4349    1
  4195  4030  4350    1
  4196  4032  4033    1
  4197  4033  4034    1
  4198  4033  4351    1
  4199  4033  4352    1
  4200  4034  4035    1
  4201  4034  4045    1
  4202  4034  4353    1
  4203  4035  4354    1
  4204  4035  4355    1
  4205  4035  4356    1
  4206  4036  4037    1
  4207  4036  4040    1
  4208  4036  4048    1
  4209  4036  4357    1
  4210  4037  4038    1
  4211  4037  4358    1
  4212  4037  4359    1
  4213  4038  4039    1
  4214  4038  4360    1
  4215  4038  4361    1
  4216  4039  4047    1
  4217  4040  4041    1
  4218  4040  4362    1
  4219  4040  4363    1
  4220  4041  4042    1
  4221  4041  4364    1
  4222  4041  4365    1
  4223  4042  4043    1
  4224  4042  4366    1
  4225  4042  4367    1
  4226  4043  4044    1
  4227  4043  4368    1
  4228  4043  4369    1
  4229  4044  4045    1
  4230  4044  4046    2
  4231  4049  4050    1
  4232  4049  4053    2
  4233  4049  4054    1
  4234  4050  4051    2
  4235  4050  4052    1
  4236  4051  4370    1
  4237  4051  4371    1
  4238  4052  4372    1
  4239  4052  4373    1
  4240  4052  4374    1
  4241  4054  4055    1
  4242  4055  4056    1
  4243  4055  4375    1
  4244  4055  4376    1
  4245  4056  4057    1
  4246  4056  4068    1
  4247  4056  4377    1
  4248  4057  4378    1
  4249  4057  4379    1
  4250  4057  4380    1
  4251  4058  4059    1
  4252  4059  4060    1
  4253  4059  4063    1
  4254  4059  4381    1
  4255  4060  4061    1
  4256  4060  4382    1
  4257  4060  4383    1
  4258  4061  4062    1
  4259  4061  4384    1
  4260  4061  4385    1
  4261  4062  4070    2
  4262  4063  4064    1
  4263  4063  4386    1
  4264  4063  4387    1
  4265  4064  4065    1
  4266  4064  4388    1
  4267  4064  4389    1
  4268  4065  4066    1
  4269  4065  4390    1
  4270  4065  4391    1
  4271  4066  4067    1
  4272  4066  4392    1
  4273  4066  4393    1
  4274  4067  4068    1
  4275  4067  4069    2
  4276  4071  4072    1
  4277  4071  4082    1
  4278  4071  4394    1
  4279  4071  4395    1
  4280  4072  4073    1
  4281  4072  4396    1
  4282  4072  4397    1
  4283  4073  4074    1
  4284  4073  4398    1
  4285  4073  4399    1
  4286  4074  4075    1
  4287  4074  4400    1
  4288  4074  4401    1
  4289  4075  4076    1
  4290  4075  4402    1
  4291  4075  4403    1
  4292  4076  4077    1
  4293  4076  4404    1
  4294  4076  4405    1
  4295  4077  4078    1
  4296  4077  4406    1
  4297  4077  4407    1
  4298  4078  4079    1
  4299  4078  4408    1
  4300  4078  4409    1
  4301  4079  4080    1
  4302  4079  4410    1
  4303  4079  4411    1
  4304  4080  4081    1
  4305  4080  4412    1
  4306  4080  4413    1
  4307  4081  4085    1
  4308  4081  4414    1
  4309  4081  4415    1
  4310  4082  4416    1
  4311  4082  4417    1
  4312  4082  4418    1
  4313  4083  4084    1
  4314  4083  4087    1
  4315  4083  4088    1
  4316  4083  4419    1
  4317  4084  4085    1
  4318  4084  4086    2
  4319  4087  4420    1
  4320  4087  4421    1
  4321  4087  4422    1
  4322  4088  4423    1
  4323  4088  4424    1
  4324  4089  4425    1
  4325  4089  4426    1
  4326  4089  4427    1
  4327  4090  4092    2
  4328  4091  4092    1
  4329  4091  4428    1
  4330  4092  4093    1
  4331  4093  4094    1
  4332  4093  4429    1
  4333  4093  4430    1
  4334  4094  4095    1
  4335  4094  4431    1
  4336  4094  4432    1
  4337  4095  4096    1
  4338  4095  4433    1
  4339  4095  4434    1
  4340  4096  4121    1
  4341  4096  4435    1
  4342  4096  4436    1
  4343  4097  4098    1
  4344  4097  4153    1
  4345  4098  4099    1
  4346  4098  4437    1
  4347  4098  4438    1
  4348  4099  4121    1
  4349  4099  4439    1
  4350  4099  4440    1
  4351  4100  4101    1
  4352  4100  4104    2
  4353  4100  4105    1
  4354  4101  4102    1
  4355  4101  4103    1
  4356  4101  4184    1
  4357  4102  4183    1
  4358  4102  4441    1
  4359  4102  4442    1
  4360  4103  4443    1
  4361  4103  4444    1
  4362  4103  4445    1
  4363  4105  4106    1
  4364  4106  4107    1
  4365  4106  4446    1
  4366  4106  4447    1
  4367  4107  4108    1
  4368  4107  4118    1
  4369  4107  4448    1
  4370  4108  4449    1
  4371  4108  4450    1
  4372  4108  4451    1
  4373  4109  4110    1
  4374  4109  4113    1
  4375  4109  4165    1
  4376  4109  4452    1
  4377  4110  4111    1
  4378  4110  4453    1
  4379  4110  4454    1
  4380  4111  4112    1
  4381  4111  4455    1
  4382  4111  4456    1
  4383  4112  4143    1
  4384  4113  4114    1
  4385  4113  4457    1
  4386  4113  4458    1
  4387  4114  4115    1
  4388  4114  4459    1
  4389  4114  4460    1
  4390  4115  4116    1
  4391  4115  4461    1
  4392  4115  4462    1
  4393  4116  4117    1
  4394  4116  4463    1
  4395  4116  4464    1
  4396  4117  4118    1
  4397  4117  4119    2
  4398  4120  4121    1
  4399  4120  4122    1
  4400  4121  4465    1
  4401  4122  4466    1
  4402  4122  4467    1
  4403  4122  4468    1
  4404  4123  4124    1
  4405  4123  4127    2
  4406  4123  4128    1
  4407  4124  4125    2
  4408  4124  4126    1
  4409  4125  4469    1
  4410  4125  4470    1
  4411  4126  4471    1
  4412  4126  4472    1
  4413  4126  4473    1
  4414  4128  4129    1
  4415  4129  4130    1
  4416  4129  4474    1
  4417  4129  4475    1
  4418  4130  4131    1
  4419  4130  4141    1
  4420  4130  4476    1
  4421  4131  4477    1
  4422  4131  4478    1
  4423  4131  4479    1
  4424  4132  4133    1
  4425  4132  4136    1
  4426  4132  4143    1
  4427  4132  4480    1
  4428  4133  4134    1
  4429  4133  4481    1
  4430  4133  4482    1
  4431  4134  4135    1
  4432  4134  4483    1
  4433  4134  4484    1
  4434  4136  4137    1
  4435  4136  4485    1
  4436  4136  4486    1
  4437  4137  4138    1
  4438  4137  4487    1
  4439  4137  4488    1
  4440  4138  4139    1
  4441  4138  4489    1
  4442  4138  4490    1
  4443  4139  4140    1
  4444  4139  4491    1
  4445  4139  4492    1
  4446  4140  4141    1
  4447  4140  4142    2
  4448  4144  4145    1
  4449  4144  4148    2
  4450  4144  4149    1
  4451  4145  4146    2
  4452  4145  4147    1
  4453  4146  4493    1
  4454  4146  4494    1
  4455  4147  4495    1
  4456  4147  4496    1
  4457  4147  4497    1
  4458  4149  4150    1
  4459  4150  4151    1
  4460  4150  4498    1
  4461  4150  4499    1
  4462  4151  4152    1
  4463  4151  4163    1
  4464  4151  4500    1
  4465  4152  4501    1
  4466  4152  4502    1
  4467  4152  4503    1
  4468  4153  4154    1
  4469  4154  4155    1
  4470  4154  4158    1
  4471  4154  4504    1
  4472  4155  4156    1
  4473  4155  4505    1
  4474  4155  4506    1
  4475  4156  4157    1
  4476  4156  4507    1
  4477  4156  4508    1
  4478  4157  4165    1
  4479  4158  4159    1
  4480  4158  4509    1
  4481  4158  4510    1
  4482  4159  4160    1
  4483  4159  4511    1
  4484  4159  4512    1
  4485  4160  4161    1
  4486  4160  4513    1
  4487  4160  4514    1
  4488  4161  4162    1
  4489  4161  4515    1
  4490  4161  4516    1
  4491  4162  4163    1
  4492  4162  4164    2
  4493  4166  4167    1
  4494  4166  4177    1
  4495  4166  4517    1
  4496  4166  4518    1
  4497  4167  4168    1
  4498  4167  4519    1
  4499  4167  4520    1
  4500  4168  4169    1
  4501  4168  4521    1
  4502  4168  4522    1
  4503  4169  4170    1
  4504  4169  4523    1
  4505  4169  4524    1
  4506  4170  4171    1
  4507  4170  4525    1
  4508  4170  4526    1
  4509  4171  4172    1
  4510  4171  4527    1
  4511  4171  4528    1
  4512  4172  4173    1
  4513  4172  4529    1
  4514  4172  4530    1
  4515  4173  4174    1
  4516  4173  4531    1
  4517  4173  4532    1
  4518  4174  4175    1
  4519  4174  4533    1
  4520  4174  4534    1
  4521  4175  4176    1
  4522  4175  4535    1
  4523  4175  4536    1
  4524  4176  4180    1
  4525  4176  4537    1
  4526  4176  4538    1
  4527  4177  4539    1
  4528  4177  4540    1
  4529  4177  4541    1
  4530  4178  4179    1
  4531  4178  4182    1
  4532  4178  4183    1
  4533  4178  4542    1
  4534  4179  4180    1
  4535  4179  4181    2
  4536  4182  4543    1
  4537  4182  4544    1
  4538  4182  4545    1
  4539  4183  4546    1
  4540  4183  4547    1
  4541  4184  4548    1
  4542  4184  4549    1
  4543  4184  4550    1
  4544  4551  4553    2
  4545  4552  4553    1
  4546  4552  4835    1
  4547  4553  4554    1
  4548  4554  4555    1
  4549  4554  4836    1
  4550  4554  4837    1
  4551  4555  4556    1
  4552  4555  4838    1
  4553  4555  4839    1
  4554  4556  4557    1
  4555  4556  4840    1
  4556  4556  4841    1
  4557  4557  4581    1
  4558  4557  4842    1
  4559  4557  4843    1
  4560  4558  4559    1
  4561  4558  4613    2
  4562  4559  4560    1
  4563  4559  4844    1
  4564  4559  4845    1
  4565  4560  4581    1
  4566  4560  4846    1
  4567  4560  4847    1
  4568  4561  4562    1
  4569  4561  4565    2
  4570  4561  4566    1
  4571  4562  4563    1
  4572  4562  4564    1
  4573  4562  4644    1
  4574  4563  4643    1
  4575  4563  4848    1
  4576  4563  4849    1
  4577  4564  4850    1
  4578  4564  4851    1
  4579  4564  4852    1
  4580  4566  4567    1
  4581  4567  4568    1
  4582  4567  4853    1
  4583  4567  4854    1
  4584  4568  4569    1
  4585  4568  4579    1
  4586  4568  4855    1
  4587  4569  4856    1
  4588  4569  4857    1
  4589  4569  4858    1
  4590  4570  4571    1
  4591  4570  4574    1
  4592  4570  4625    1
  4593  4570  4859    1
  4594  4571  4572    1
  4595  4571  4860    1
  4596  4571  4861    1
  4597  4572  4573    1
  4598  4572  4862    1
  4599  4572  4863    1
  4600  4573  4603    1
  4601  4574  4575    1
  4602  4574  4864    1
  4603  4574  4865    1
  4604  4575  4576    1
  4605  4575  4866    1
  4606  4575  4867    1
  4607  4576  4577    1
  4608  4576  4868    1
  4609  4576  4869    1
  4610  4577  4578    1
  4611  4577  4870    1
  4612  4577  4871    1
  4613  4578  4579    1
  4614  4578  4580    2
  4615  4581  4697    1
  4616  4581  4872    1
  4617  4582  4583    1
  4618  4582  4586    2
  4619  4582  4587    1
  4620  4583  4584    2
  4621  4583  4585    1
  4622  4584  4873    1
  4623  4584  4874    1
  4624  4585  4875    1
  4625  4585  4876    1
  4626  4585  4877    1
  4627  4587  4588    1
  4628  4588  4589    1
  4629  4588  4878    1
  4630  4588  4879    1
  4631  4589  4590    1
  4632  4589  4600    1
  4633  4589  4880    1
  4634  4590  4881    1
  4635  4590  4882    1
  4636  4590  4883    1
  4637  4591  4592    1
  4638  4591  4595    1
  4639  4591  4603    1
  4640  4591  4884    1
  4641  4592  4593    1
  4642  4592  4885    1
  4643  4592  4886    1
  4644  4593  4594    1
  4645  4593  4887    1
  4646  4593  4888    1
  4647  4594  4602    1
  4648  4595  4596    1
  4649  4595  4889    1
  4650  4595  4890    1
  4651  4596  4597    1
  4652  4596  4891    1
  4653  4596  4892    1
  4654  4597  4598    1
  4655  4597  4893    1
  4656  4597  4894    1
  4657  4598  4599    1
  4658  4598  4895    1
  4659  4598  4896    1
  4660  4599  4600    1
  4661  4599  4601    2
  4662  4602  4897    1
  4663  4602  4898    1
  4664  4602  4899    1
  4665  4604  4605    1
  4666  4604  4608    2
  4667  4604  4609    1
  4668  4605  4606    2
  4669  4605  4607    1
  4670  4606  4900    1
  4671  4606  4901    1
  4672  4607  4902    1
  4673  4607  4903    1
  4674  4607  4904    1
  4675  4609  4610    1
  4676  4610  4611    1
  4677  4610  4905    1
  4678  4610  4906    1
  4679  4611  4612    1
  4680  4611  4623    1
  4681  4611  4907    1
  4682  4612  4908    1
  4683  4612  4909    1
  4684  4612  4910    1
  4685  4613  4614    1
  4686  4614  4615    1
  4687  4614  4618    1
  4688  4614  4911    1
  4689  4615  4616    1
  4690  4615  4912    1
  4691  4615  4913    1
  4692  4616  4617    1
  4693  4616  4914    1
  4694  4616  4915    1
  4695  4617  4625    1
  4696  4618  4619    1
  4697  4618  4916    1
  4698  4618  4917    1
  4699  4619  4620    1
  4700  4619  4918    1
  4701  4619  4919    1
  4702  4620  4621    1
  4703  4620  4920    1
  4704  4620  4921    1
  4705  4621  4622    1
  4706  4621  4922    1
  4707  4621  4923    1
  4708  4622  4623    1
  4709  4622  4624    2
  4710  4626  4627    1
  4711  4626  4637    1
  4712  4626  4924    1
  4713  4626  4925    1
  4714  4627  4628    1
  4715  4627  4926    1
  4716  4627  4927    1
  4717  4628  4629    1
  4718  4628  4928    1
  4719  4628  4929    1
  4720  4629  4630    1
  4721  4629  4930    1
  4722  4629  4931    1
  4723  4630  4631    1
  4724  4630  4932    1
  4725  4630  4933    1
  4726  4631  4632    1
  4727  4631  4934    1
  4728  4631  4935    1
  4729  4632  4633    1
  4730  4632  4936    1
  4731  4632  4937    1
  4732  4633  4634    1
  4733  4633  4938    1
  4734  4633  4939    1
  4735  4634  4635    1
  4736  4634  4940    1
  4737  4634  4941    1
  4738  4635  4636    1
  4739  4635  4942    1
  4740  4635  4943    1
  4741  4636  4640    1
  4742  4636  4944    1
  4743  4636  4945    1
  4744  4637  4946    1
  4745  4637  4947    1
  4746  4637  4948    1
  4747  4638  4639    1
  4748  4638  4642    1
  4749  4638  4643    1
  4750  4638  4949    1
  4751  4639  4640    1
  4752  4639  4641    2
  4753  4642  4950    1
  4754  4642  4951    1
  4755  4642  4952    1
  4756  4643  4953    1
  4757  4643  4954    1
  4758  4644  4955    1
  4759  4644  4956    1
  4760  4644  4957    1
  4761  4645  4647    2
  4762  4646  4647    1
  4763  4646  4958    1
  4764  4647  4648    1
  4765  4648  4649    1
  4766  4648  4959    1
  4767  4648  4960    1
  4768  4649  4650    1
  4769  4649  4961    1
  4770  4649  4962    1
  4771  4650  4651    1
  4772  4650  4963    1
  4773  4650  4964    1
  4774  4651  4676    1
  4775  4651  4965    1
  4776  4651  4966    1
  4777  4652  4653    1
  4778  4652  4708    1
  4779  4653  4654    1
  4780  4653  4967    1
  4781  4653  4968    1
  4782  4654  4676    1
  4783  4654  4969    1
  4784  4654  4970    1
  4785  4655  4656    1
  4786  4655  4659    2
  4787  4655  4660    1
  4788  4656  4657    1
  4789  4656  4658    1
  4790  4656  4739    1
  4791  4657  4738    1
  4792  4657  4971    1
  4793  4657  4972    1
  4794  4658  4973    1
  4795  4658  4974    1
  4796  4658  4975    1
  4797  4660  4661    1
  4798  4661  4662    1
  4799  4661  4976    1
  4800  4661  4977    1
  4801  4662  4663    1
  4802  4662  4673    1
  4803  4662  4978    1
  4804  4663  4979    1
  4805  4663  4980    1
  4806  4663  4981    1
  4807  4664  4665    1
  4808  4664  4668    1
  4809  4664  4720    1
  4810  4664  4982    1
  4811  4665  4666    1
  4812  4665  4983    1
  4813  4665  4984    1
  4814  4666  4667    1
  4815  4666  4985    1
  4816  4666  4986    1
  4817  4667  4698    1
  4818  4668  4669    1
  4819  4668  4987    1
  4820  4668  4988    1
  4821  4669  4670    1
  4822  4669  4989    1
  4823  4669  4990    1
  4824  4670  4671    1
  4825  4670  4991    1
  4826  4670  4992    1
  4827  4671  4672    1
  4828  4671  4993    1
  4829  4671  4994    1
  4830  4672  4673    1
  4831  4672  4674    2
  4832  4675  4676    1
  4833  4675  4785    1
  4834  4676  4995    1
  4835  4677  4678    1
  4836  4677  4681    2
  4837  4677  4682    1
  4838  4678  4679    2
  4839  4678  4680    1
  4840  4679  4996    1
  4841  4679  4997    1
  4842  4680  4998    1
  4843  4680  4999    1
  4844  4680  5000    1
  4845  4682  4683    1
  4846  4683  4684    1
  4847  4683  5001    1
  4848  4683  5002    1
  4849  4684  4685    1
  4850  4684  4695    1
  4851  4684  5003    1
  4852  4685  5004    1
  4853  4685  5005    1
  4854  4685  5006    1
  4855  4686  4687    1
  4856  4686  4690    1
  4857  4686  4698    1
  4858  4686  5007    1
  4859  4687  4688    1
  4860  4687  5008    1
  4861  4687  5009    1
  4862  4688  4689    1
  4863  4688  5010    1
  4864  4688  5011    1
  4865  4689  4697    1
  4866  4690  4691    1
  4867  4690  5012    1
  4868  4690  5013    1
  4869  4691  4692    1
  4870  4691  5014    1
  4871  4691  5015    1
  4872  4692  4693    1
  4873  4692  5016    1
  4874  4692  5017    1
  4875  4693  4694    1
  4876  4693  5018    1
  4877  4693  5019    1
  4878  4694  4695    1
  4879  4694  4696    2
  4880  4699  4700    1
  4881  4699  4703    2
  4882  4699  4704    1
  4883  4700  4701    2
  4884  4700  4702    1
  4885  4701  5020    1
  4886  4701  5021    1
  4887  4702  5022    1
  4888  4702  5023    1
  4889  4702  5024    1
  4890  4704  4705    1
  4891  4705  4706    1
  4892  4705  5025    1
  4893  4705  5026    1
  4894  4706  4707    1
  4895  4706  4718    1
  4896  4706  5027    1
  4897  4707  5028    1
  4898  4707  5029    1
  4899  4707  5030    1
  4900  4708  4709    1
  4901  4709  4710    1
  4902  4709  4713    1
  4903  4709  5031    1
  4904  4710  4711    1
  4905  4710  5032    1
  4906  4710  5033    1
  4907  4711  4712    1
  4908  4711  5034    1
  4909  4711  5035    1
  4910  4712  4720    2
  4911  4713  4714    1
  4912  4713  5036    1
  4913  4713  5037    1
  4914  4714  4715    1
  4915  4714  5038    1
  4916  4714  5039    1
  4917  4715  4716    1
  4918  4715  5040    1
  4919  4715  5041    1
  4920  4716  4717    1
  4921  4716  5042    1
  4922  4716  5043    1
  4923  4717  4718    1
  4924  4717  4719    2
  4925  4721  4722    1
  4926  4721  4732    1
  4927  4721  5044    1
  4928  4721  5045    1
  4929  4722  4723    1
  4930  4722  5046    1
  4931  4722  5047    1
  4932  4723  4724    1
  4933  4723  5048    1
  4934  4723  5049    1
  4935  4724  4725    1
  4936  4724  5050    1
  4937  4724  5051    1
  4938  4725  4726    1
  4939  4725  5052    1
  4940  4725  5053    1
  4941  4726  4727    1
  4942  4726  5054    1
  4943  4726  5055    1
  4944  4727  4728    1
  4945  4727  5056    1
  4946  4727  5057    1
  4947  4728  4729    1
  4948  4728  5058    1
  4949  4728  5059    1
  4950  4729  4730    1
  4951  4729  5060    1
  4952  4729  5061    1
  4953  4730  4731    1
  4954  4730  5062    1
  4955  4730  5063    1
  4956  4731  4735    1
  4957  4731  5064    1
  4958  4731  5065    1
  4959  4732  5066    1
  4960  4732  5067    1
  4961  4732  5068    1
  4962  4733  4734    1
  4963  4733  4737    1
  4964  4733  4738    1
  4965  4733  5069    1
  4966  4734  4735    1
  4967  4734  4736    2
  4968  4737  5070    1
  4969  4737  5071    1
  4970  4737  5072    1
  4971  4738  5073    1
  4972  4738  5074    1
  4973  4739  5075    1
  4974  4739  5076    1
  4975  4739  5077    1
  4976  4740  4742    2
  4977  4741  4742    1
  4978  4741  5078    1
  4979  4742  4743    1
  4980  4743  4744    1
  4981  4743  5079    1
  4982  4743  5080    1
  4983  4744  4745    1
  4984  4744  5081    1
  4985  4744  5082    1
  4986  4745  4746    1
  4987  4745  5083    1
  4988  4745  5084    1
  4989  4746  4771    1
  4990  4746  5085    1
  4991  4746  5086    1
  4992  4747  4748    1
  4993  4747  4803    1
  4994  4748  4749    1
  4995  4748  5087    1
  4996  4748  5088    1
  4997  4749  4771    1
  4998  4749  5089    1
  4999  4749  5090    1
  5000  4750  4751    1
  5001  4750  4754    2
  5002  4750  4755    1
  5003  4751  4752    1
  5004  4751  4753    1
  5005  4751  4834    1
  5006  4752  4833    1
  5007  4752  5091    1
  5008  4752  5092    1
  5009  4753  5093    1
  5010  4753  5094    1
  5011  4753  5095    1
  5012  4755  4756    1
  5013  4756  4757    1
  5014  4756  5096    1
  5015  4756  5097    1
  5016  4757  4758    1
  5017  4757  4768    1
  5018  4757  5098    1
  5019  4758  5099    1
  5020  4758  5100    1
  5021  4758  5101    1
  5022  4759  4760    1
  5023  4759  4763    1
  5024  4759  4815    1
  5025  4759  5102    1
  5026  4760  4761    1
  5027  4760  5103    1
  5028  4760  5104    1
  5029  4761  4762    1
  5030  4761  5105    1
  5031  4761  5106    1
  5032  4762  4793    1
  5033  4763  4764    1
  5034  4763  5107    1
  5035  4763  5108    1
  5036  4764  4765    1
  5037  4764  5109    1
  5038  4764  5110    1
  5039  4765  4766    1
  5040  4765  5111    1
  5041  4765  5112    1
  5042  4766  4767    1
  5043  4766  5113    1
  5044  4766  5114    1
  5045  4767  4768    1
  5046  4767  4769    2
  5047  4770  4771    1
  5048  4770  4772    1
  5049  4771  5115    1
  5050  4772  5116    1
  5051  4772  5117    1
  5052  4772  5118    1
  5053  4773  4774    1
  5054  4773  4777    2
  5055  4773  4778    1
  5056  4774  4775    2
  5057  4774  4776    1
  5058  4775  5119    1
  5059  4775  5120    1
  5060  4776  5121    1
  5061  4776  5122    1
  5062  4776  5123    1
  5063  4778  4779    1
  5064  4779  4780    1
  5065  4779  5124    1
  5066  4779  5125    1
  5067  4780  4781    1
  5068  4780  4791    1
  5069  4780  5126    1
  5070  4781  5127    1
  5071  4781  5128    1
  5072  4781  5129    1
  5073  4782  4783    1
  5074  4782  4786    1
  5075  4782  4793    1
  5076  4782  5130    1
  5077  4783  4784    1
  5078  4783  5131    1
  5079  4783  5132    1
  5080  4784  4785    1
  5081  4784  5133    1
  5082  4784  5134    1
  5083  4786  4787    1
  5084  4786  5135    1
  5085  4786  5136    1
  5086  4787  4788    1
  5087  4787  5137    1
  5088  4787  5138    1
  5089  4788  4789    1
  5090  4788  5139    1
  5091  4788  5140    1
  5092  4789  4790    1
  5093  4789  5141    1
  5094  4789  5142    1
  5095  4790  4791    1
  5096  4790  4792    2
  5097  4794  4795    1
  5098  4794  4798    2
  5099  4794  4799    1
  5100  4795  4796    2
  5101  4795  4797    1
  5102  4796  5143    1
  5103  4796  5144    1
  5104  4797  5145    1
  5105  4797  5146    1
  5106  4797  5147    1
  5107  4799  4800    1
  5108  4800  4801    1
  5109  4800  5148    1
  5110  4800  5149    1
  5111  4801  4802    1
  5112  4801  4813    1
  5113  4801  5150    1
  5114  4802  5151    1
  5115  4802  5152    1
  5116  4802  5153    1
  5117  4803  4804    1
  5118  4804  4805    1
  5119  4804  4808    1
  5120  4804  5154    1
  5121  4805  4806    1
  5122  4805  5155    1
  5123  4805  5156    1
  5124  4806  4807    1
  5125  4806  5157    1
  5126  4806  5158    1
  5127  4807  4815    1
  5128  4808  4809    1
  5129  4808  5159    1
  5130  4808  5160    1
  5131  4809  4810    1
  5132  4809  5161    1
  5133  4809  5162    1
  5134  4810  4811    1
  5135  4810  5163    1
  5136  4810  5164    1
  5137  4811  4812    1
  5138  4811  5165    1
  5139  4811  5166    1
  5140  4812  4813    1
  5141  4812  4814    2
  5142  4816  4817    1
  5143  4816  4827    1
  5144  4816  5167    1
  5145  4816  5168    1
  5146  4817  4818    1
  5147  4817  5169    1
  5148  4817  5170    1
  5149  4818  4819    1
  5150  4818  5171    1
  5151  4818  5172    1
  5152  4819  4820    1
  5153  4819  5173    1
  5154  4819  5174    1
  5155  4820  4821    1
  5156  4820  5175    1
  5157  4820  5176    1
  5158  4821  4822    1
  5159  4821  5177    1
  5160  4821  5178    1
  5161  4822  4823    1
  5162  4822  5179    1
  5163  4822  5180    1
  5164  4823  4824    1
  5165  4823  5181    1
  5166  4823  5182    1
  5167  4824  4825    1
  5168  4824  5183    1
  5169  4824  5184    1
  5170  4825  4826    1
  5171  4825  5185    1
  5172  4825  5186    1
  5173  4826  4830    1
  5174  4826  5187    1
  5175  4826  5188    1
  5176  4827  5189    1
  5177  4827  5190    1
  5178  4827  5191    1
  5179  4828  4829    1
  5180  4828  4832    1
  5181  4828  4833    1
  5182  4828  5192    1
  5183  4829  4830    1
  5184  4829  4831    2
  5185  4832  5193    1
  5186  4832  5194    1
  5187  4832  5195    1
  5188  4833  5196    1
  5189  4833  5197    1
  5190  4834  5198    1
  5191  4834  5199    1
  5192  4834  5200    1
  5193  5201  5203    2
  5194  5202  5203    1
  5195  5202  5485    1
  5196  5203  5204    1
  5197  5204  5205    1
  5198  5204  5486    1
  5199  5204  5487    1
  5200  5205  5206    1
  5201  5205  5488    1
  5202  5205  5489    1
  5203  5206  5207    1
  5204  5206  5490    1
  5205  5206  5491    1
  5206  5207  5231    1
  5207  5207  5492    1
  5208  5207  5493    1
  5209  5208  5209    1
  5210  5208  5263    2
  5211  5209  5210    1
  5212  5209  5494    1
  5213  5209  5495    1
  5214  5210  5231    1
  5215  5210  5496    1
  5216  5210  5497    1
  5217  5211  5212    1
  5218  5211  5215    2
  5219  5211  5216    1
  5220  5212  5213    1
  5221  5212  5214    1
  5222  5212  5294    1
  5223  5213  5293    1
  5224  5213  5498    1
  5225  5213  5499    1
  5226  5214  5500    1
  5227  5214  5501    1
  5228  5214  5502    1
  5229  5216  5217    1
  5230  5217  5218    1
  5231  5217  5503    1
  5232  5217  5504    1
  5233  5218  5219    1
  5234  5218  5229    1
  5235  5218  5505    1
  5236  5219  5506    1
  5237  5219  5507    1
  5238  5219  5508    1
  5239  5220  5221    1
  5240  5220  5224    1
  5241  5220  5275    1
  5242  5220  5509    1
  5243  5221  5222    1
  5244  5221  5510    1
  5245  5221  5511    1
  5246  5222  5223    1
  5247  5222  5512    1
  5248  5222  5513    1
  5249  5223  5253    1
  5250  5224  5225    1
  5251  5224  5514    1
  5252  5224  5515    1
  5253  5225  5226    1
  5254  5225  5516    1
  5255  5225  5517    1
  5256  5226  5227    1
  5257  5226  5518    1
  5258  5226  5519    1
  5259  5227  5228    1
  5260  5227  5520    1
  5261  5227  5521    1
  5262  5228  5229    1
  5263  5228  5230    2
  5264  5231  5347    1
  5265  5231  5522    1
  5266  5232  5233    1
  5267  5232  5236    2
  5268  5232  5237    1
  5269  5233  5234    2
  5270  5233  5235    1
  5271  5234  5523    1
  5272  5234  5524    1
  5273  5235  5525    1
  5274  5235  5526    1
  5275  5235  5527    1
  5276  5237  5238    1
  5277  5238  5239    1
  5278  5238  5528    1
  5279  5238  5529    1
  5280  5239  5240    1
  5281  5239  5250    1
  5282  5239  5530    1
  5283  5240  5531    1
  5284  5240  5532    1
  5285  5240  5533    1
  5286  5241  5242    1
  5287  5241  5245    1
  5288  5241  5253    1
  5289  5241  5534    1
  5290  5242  5243    1
  5291  5242  5535    1
  5292  5242  5536    1
  5293  5243  5244    1
  5294  5243  5537    1
  5295  5243  5538    1
  5296  5244  5252    1
  5297  5245  5246    1
  5298  5245  5539    1
  5299  5245  5540    1
  5300  5246  5247    1
  5301  5246  5541    1
  5302  5246  5542    1
  5303  5247  5248    1
  5304  5247  5543    1
  5305  5247  5544    1
  5306  5248  5249    1
  5307  5248  5545    1
  5308  5248  5546    1
  5309  5249  5250    1
  5310  5249  5251    2
  5311  5252  5547    1
  5312  5252  5548    1
  5313  5252  5549    1
  5314  5254  5255    1
  5315  5254  5258    2
  5316  5254  5259    1
  5317  5255  5256    2
  5318  5255  5257    1
  5319  5256  5550    1
  5320  5256  5551    1
  5321  5257  5552    1
  5322  5257  5553    1
  5323  5257  5554    1
  5324  5259  5260    1
  5325  5260  5261    1
  5326  5260  5555    1
  5327  5260  5556    1
  5328  5261  5262    1
  5329  5261  5273    1
  5330  5261  5557    1
  5331  5262  5558    1
  5332  5262  5559    1
  5333  5262  5560    1
  5334  5263  5264    1
  5335  5264  5265    1
  5336  5264  5268    1
  5337  5264  5561    1
  5338  5265  5266    1
  5339  5265  5562    1
  5340  5265  5563    1
  5341  5266  5267    1
  5342  5266  5564    1
  5343  5266  5565    1
  5344  5267  5275    1
  5345  5268  5269    1
  5346  5268  5566    1
  5347  5268  5567    1
  5348  5269  5270    1
  5349  5269  5568    1
  5350  5269  5569    1
  5351  5270  5271    1
  5352  5270  5570    1
  5353  5270  5571    1
  5354  5271  5272    1
  5355  5271  5572    1
  5356  5271  5573    1
  5357  5272  5273    1
  5358  5272  5274    2
  5359  5276  5277    1
  5360  5276  5287    1
  5361  5276  5574    1
  5362  5276  5575    1
  5363  5277  5278    1
  5364  5277  5576    1
  5365  5277  5577    1
  5366  5278  5279    1
  5367  5278  5578    1
  5368  5278  5579    1
  5369  5279  5280    1
  5370  5279  5580    1
  5371  5279  5581    1
  5372  5280  5281    1
  5373  5280  5582    1
  5374  5280  5583    1
  5375  5281  5282    1
  5376  5281  5584    1
  5377  5281  5585    1
  5378  5282  5283    1
  5379  5282  5586    1
  5380  5282  5587    1
  5381  5283  5284    1
  5382  5283  5588    1
  5383  5283  5589    1
  5384  5284  5285    1
  5385  5284  5590    1
  5386  5284  5591    1
  5387  5285  5286    1
  5388  5285  5592    1
  5389  5285  5593    1
  5390  5286  5290    1
  5391  5286  5594    1
  5392  5286  5595    1
  5393  5287  5596    1
  5394  5287  5597    1
  5395  5287  5598    1
  5396  5288  5289    1
  5397  5288  5292    1
  5398  5288  5293    1
  5399  5288  5599    1
  5400  5289  5290    1
  5401  5289  5291    2
  5402  5292  5600    1
  5403  5292  5601    1
  5404  5292  5602    1
  5405  5293  5603    1
  5406  5293  5604    1
  5407  5294  5605    1
  5408  5294  5606    1
  5409  5294  5607    1
  5410  5295  5297    2
  5411  5296  5297    1
  5412  5296  5608    1
  5413  5297  5298    1
  5414  5298  5299    1
  5415  5298  5609    1
  5416  5298  5610    1
  5417  5299  5300    1
  5418  5299  5611    1
  5419  5299  5612    1
  5420  5300  5301    1
  5421  5300  5613    1
  5422  5300  5614    1
  5423  5301  5326    1
  5424  5301  5615    1
  5425  5301  5616    1
  5426  5302  5303    1
  5427  5302  5358    1
  5428  5303  5304    1
  5429  5303  5617    1
  5430  5303  5618    1
  5431  5304  5326    1
  5432  5304  5619    1
  5433  5304  5620    1
  5434  5305  5306    1
  5435  5305  5309    2
  5436  5305  5310    1
  5437  5306  5307    1
  5438  5306  5308    1
  5439  5306  5389    1
  5440  5307  5388    1
  5441  5307  5621    1
  5442  5307  5622    1
  5443  5308  5623    1
  5444  5308  5624    1
  5445  5308  5625    1
  5446  5310  5311    1
  5447  5311  5312    1
  5448  5311  5626    1
  5449  5311  5627    1
  5450  5312  5313    1
  5451  5312  5323    1
  5452  5312  5628    1
  5453  5313  5629    1
  5454  5313  5630    1
  5455  5313  5631    1
  5456  5314  5315    1
  5457  5314  5318    1
  5458  5314  5370    1
  5459  5314  5632    1
  5460  5315  5316    1
  5461  5315  5633    1
  5462  5315  5634    1
  5463  5316  5317    1
  5464  5316  5635    1
  5465  5316  5636    1
  5466  5317  5348    1
  5467  5318  5319    1
  5468  5318  5637    1
  5469  5318  5638    1
  5470  5319  5320    1
  5471  5319  5639    1
  5472  5319  5640    1
  5473  5320  5321    1
  5474  5320  5641    1
  5475  5320  5642    1
  5476  5321  5322    1
  5477  5321  5643    1
  5478  5321  5644    1
  5479  5322  5323    1
  5480  5322  5324    2
  5481  5325  5326    1
  5482  5325  5435    1
  5483  5326  5645    1
  5484  5327  5328    1
  5485  5327  5331    2
  5486  5327  5332    1
  5487  5328  5329    2
  5488  5328  5330    1
  5489  5329  5646    1
  5490  5329  5647    1
  5491  5330  5648    1
  5492  5330  5649    1
  5493  5330  5650    1
  5494  5332  5333    1
  5495  5333  5334    1
  5496  5333  5651    1
  5497  5333  5652    1
  5498  5334  5335    1
  5499  5334  5345    1
  5500  5334  5653    1
  5501  5335  5654    1
  5502  5335  5655    1
  5503  5335  5656    1
  5504  5336  5337    1
  5505  5336  5340    1
  5506  5336  5348    1
  5507  5336  5657    1
  5508  5337  5338    1
  5509  5337  5658    1
  5510  5337  5659    1
  5511  5338  5339    1
  5512  5338  5660    1
  5513  5338  5661    1
  5514  5339  5347    1
  5515  5340  5341    1
  5516  5340  5662    1
  5517  5340  5663    1
  5518  5341  5342    1
  5519  5341  5664    1
  5520  5341  5665    1
  5521  5342  5343    1
  5522  5342  5666    1
  5523  5342  5667    1
  5524  5343  5344    1
  5525  5343  5668    1
  5526  5343  5669    1
  5527  5344  5345    1
  5528  5344  5346    2
  5529  5349  5350    1
  5530  5349  5353    2
  5531  5349  5354    1
  5532  5350  5351    2
  5533  5350  5352    1
  5534  5351  5670    1
  5535  5351  5671    1
  5536  5352  5672    1
  5537  5352  5673    1
  5538  5352  5674    1
  5539  5354  5355    1
  5540  5355  5356    1
  5541  5355  5675    1
  5542  5355  5676    1
  5543  5356  5357    1
  5544  5356  5368    1
  5545  5356  5677    1
  5546  5357  5678    1
  5547  5357  5679    1
  5548  5357  5680    1
  5549  5358  5359    1
  5550  5359  5360    1
  5551  5359  5363    1
  5552  5359  5681    1
  5553  5360  5361    1
  5554  5360  5682    1
  5555  5360  5683    1
  5556  5361  5362    1
  5557  5361  5684    1
  5558  5361  5685    1
  5559  5362  5370    2
  5560  5363  5364    1
  5561  5363  5686    1
  5562  5363  5687    1
  5563  5364  5365    1
  5564  5364  5688    1
  5565  5364  5689    1
  5566  5365  5366    1
  5567  5365  5690    1
  5568  5365  5691    1
  5569  5366  5367    1
  5570  5366  5692    1
  5571  5366  5693    1
  5572  5367  5368    1
  5573  5367  5369    2
  5574  5371  5372    1
  5575  5371  5382    1
  5576  5371  5694    1
  5577  5371  5695    1
  5578  5372  5373    1
  5579  5372  5696    1
  5580  5372  5697    1
  5581  5373  5374    1
  5582  5373  5698    1
  5583  5373  5699    1
  5584  5374  5375    1
  5585  5374  5700    1
  5586  5374  5701    1
  5587  5375  5376    1
  5588  5375  5702    1
  5589  5375  5703    1
  5590  5376  5377    1
  5591  5376  5704    1
  5592  5376  5705    1
  5593  5377  5378    1
  5594  5377  5706    1
  5595  5377  5707    1
  5596  5378  5379    1
  5597  5378  5708    1
  5598  5378  5709    1
  5599  5379  5380    1
  5600  5379  5710    1
  5601  5379  5711    1
  5602  5380  5381    1
  5603  5380  5712    1
  5604  5380  5713    1
  5605  5381  5385    1
  5606  5381  5714    1
  5607  5381  5715    1
  5608  5382  5716    1
  5609  5382  5717    1
  5610  5382  5718    1
  5611  5383  5384    1
  5612  5383  5387    1
  5613  5383  5388    1
  5614  5383  5719    1
  5615  5384  5385    1
  5616  5384  5386    2
  5617  5387  5720    1
  5618  5387  5721    1
  5619  5387  5722    1
  5620  5388  5723    1
  5621  5388  5724    1
  5622  5389  5725    1
  5623  5389  5726    1
  5624  5389  5727    1
  5625  5390  5392    2
  5626  5391  5392    1
  5627  5391  5728    1
  5628  5392  5393    1
  5629  5393  5394    1
  5630  5393  5729    1
  5631  5393  5730    1
  5632  5394  5395    1
  5633  5394  5731    1
  5634  5394  5732    1
  5635  5395  5396    1
  5636  5395  5733    1
  5637  5395  5734    1
  5638  5396  5421    1
  5639  5396  5735    1
  5640  5396  5736    1
  5641  5397  5398    1
  5642  5397  5453    1
  5643  5398  5399    1
  5644  5398  5737    1
  5645  5398  5738    1
  5646  5399  5421    1
  5647  5399  5739    1
  5648  5399  5740    1
  5649  5400  5401    1
  5650  5400  5404    2
  5651  5400  5405    1
  5652  5401  5402    1
  5653  5401  5403    1
  5654  5401  5484    1
  5655  5402  5483    1
  5656  5402  5741    1
  5657  5402  5742    1
  5658  5403  5743    1
  5659  5403  5744    1
  5660  5403  5745    1
  5661  5405  5406    1
  5662  5406  5407    1
  5663  5406  5746    1
  5664  5406  5747    1
  5665  5407  5408    1
  5666  5407  5418    1
  5667  5407  5748    1
  5668  5408  5749    1
  5669  5408  5750    1
  5670  5408  5751    1
  5671  5409  5410    1
  5672  5409  5413    1
  5673  5409  5465    1
  5674  5409  5752    1
  5675  5410  5411    1
  5676  5410  5753    1
  5677  5410  5754    1
  5678  5411  5412    1
  5679  5411  5755    1
  5680  5411  5756    1
  5681  5412  5443    1
  5682  5413  5414    1
  5683  5413  5757    1
  5684  5413  5758    1
  5685  5414  5415    1
  5686  5414  5759    1
  5687  5414  5760    1
  5688  5415  5416    1
  5689  5415  5761    1
  5690  5415  5762    1
  5691  5416  5417    1
  5692  5416  5763    1
  5693  5416  5764    1
  5694  5417  5418    1
  5695  5417  5419    2
  5696  5420  5421    1
  5697  5420  5422    1
  5698  5421  5765    1
  5699  5422  5766    1
  5700  5422  5767    1
  5701  5422  5768    1
  5702  5423  5424    1
  5703  5423  5427    2
  5704  5423  5428    1
  5705  5424  5425    2
  5706  5424  5426    1
  5707  5425  5769    1
  5708  5425  5770    1
  5709  5426  5771    1
  5710  5426  5772    1
  5711  5426  5773    1
  5712  5428  5429    1
  5713  5429  5430    1
  5714  5429  5774    1
  5715  5429  5775    1
  5716  5430  5431    1
  5717  5430  5441    1
  5718  5430  5776    1
  5719  5431  5777    1
  5720  5431  5778    1
  5721  5431  5779    1
  5722  5432  5433    1
  5723  5432  5436    1
  5724  5432  5443    1
  5725  5432  5780    1
  5726  5433  5434    1
  5727  5433  5781    1
  5728  5433  5782    1
  5729  5434  5435    1
  5730  5434  5783    1
  5731  5434  5784    1
  5732  5436  5437    1
  5733  5436  5785    1
  5734  5436  5786    1
  5735  5437  5438    1
  5736  5437  5787    1
  5737  5437  5788    1
  5738  5438  5439    1
  5739  5438  5789    1
  5740  5438  5790    1
  5741  5439  5440    1
  5742  5439  5791    1
  5743  5439  5792    1
  5744  5440  5441    1
  5745  5440  5442    2
  5746  5444  5445    1
  5747  5444  5448    2
  5748  5444  5449    1
  5749  5445  5446    2
  5750  5445  5447    1
  5751  5446  5793    1
  5752  5446  5794    1
  5753  5447  5795    1
  5754  5447  5796    1
  5755  5447  5797    1
  5756  5449  5450    1
  5757  5450  5451    1
  5758  5450  5798    1
  5759  5450  5799    1
  5760  5451  5452    1
  5761  5451  5463    1
  5762  5451  5800    1
  5763  5452  5801    1
  5764  5452  5802    1
  5765  5452  5803    1
  5766  5453  5454    1
  5767  5454  5455    1
  5768  5454  5458    1
  5769  5454  5804    1
  5770  5455  5456    1
  5771  5455  5805    1
  5772  5455  5806    1
  5773  5456  5457    1
  5774  5456  5807    1
  5775  5456  5808    1
  5776  5457  5465    1
  5777  5458  5459    1
  5778  5458  5809    1
  5779  5458  5810    1
  5780  5459  5460    1
  5781  5459  5811    1
  5782  5459  5812    1
  5783  5460  5461    1
  5784  5460  5813    1
  5785  5460  5814    1
  5786  5461  5462    1
  5787  5461  5815    1
  5788  5461  5816    1
  5789  5462  5463    1
  5790  5462  5464    2
  5791  5466  5467    1
  5792  5466  5477    1
  5793  5466  5817    1
  5794  5466  5818    1
  5795  5467  5468    1
  5796  5467  5819    1
  5797  5467  5820    1
  5798  5468  5469    1
  5799  5468  5821    1
  5800  5468  5822    1
  5801  5469  5470    1
  5802  5469  5823    1
  5803  5469  5824    1
  5804  5470  5471    1
  5805  5470  5825    1
  5806  5470  5826    1
  5807  5471  5472    1
  5808  5471  5827    1
  5809  5471  5828    1
  5810  5472  5473    1
  5811  5472  5829    1
  5812  5472  5830    1
  5813  5473  5474    1
  5814  5473  5831    1
  5815  5473  5832    1
  5816  5474  5475    1
  5817  5474  5833    1
  5818  5474  5834    1
  5819  5475  5476    1
  5820  5475  5835    1
  5821  5475  5836    1
  5822  5476  5480    1
  5823  5476  5837    1
  5824  5476  5838    1
  5825  5477  5839    1
  5826  5477  5840    1
  5827  5477  5841    1
  5828  5478  5479    1
  5829  5478  5482    1
  5830  5478  5483    1
  5831  5478  5842    1
  5832  5479  5480    1
  5833  5479  5481    2
  5834  5482  5843    1
  5835  5482  5844    1
  5836  5482  5845    1
  5837  5483  5846    1
  5838  5483  5847    1
  5839  5484  5848    1
  5840  5484  5849    1
  5841  5484  5850    1
  5842  5851  5853    2
  5843  5852  5853    1
  5844  5852  6135    1
  5845  5853  5854    1
  5846  5854  5855    1
  5847  5854  6136    1
  5848  5854  6137    1
  5849  5855  5856    1
  5850  5855  6138    1
  5851  5855  6139    1
  5852  5856  5857    1
  5853  5856  6140    1
  5854  5856  6141    1
  5855  5857  5881    1
  5856  5857  6142    1
  5857  5857  6143    1
  5858  5858  5859    1
  5859  5858  5913    2
  5860  5859  5860    1
  5861  5859  6144    1
  5862  5859  6145    1
  5863  5860  5881    1
  5864  5860  6146    1
  5865  5860  6147    1
  5866  5861  5862    1
  5867  5861  5865    2
  5868  5861  5866    1
  5869  5862  5863    1
  5870  5862  5864    1
  5871  5862  5944    1
  5872  5863  5943    1
  5873  5863  6148    1
  5874  5863  6149    1
  5875  5864  6150    1
  5876  5864  6151    1
  5877  5864  6152    1
  5878  5866  5867    1
  5879  5867  5868    1
  5880  5867  6153    1
  5881  5867  6154    1
  5882  5868  5869    1
  5883  5868  5879    1
  5884  5868  6155    1
  5885  5869  6156    1
  5886  5869  6157    1
  5887  5869  6158    1
  5888  5870  5871    1
  5889  5870  5874    1
  5890  5870  5925    1
  5891  5870  6159    1
  5892  5871  5872    1
  5893  5871  6160    1
  5894  5871  6161    1
  5895  5872  5873    1
  5896  5872  6162    1
  5897  5872  6163    1
  5898  5873  5903    1
  5899  5874  5875    1
  5900  5874  6164    1
  5901  5874  6165    1
  5902  5875  5876    1
  5903  5875  6166    1
  5904  5875  6167    1
  5905  5876  5877    1
  5906  5876  6168    1
  5907  5876  6169    1
  5908  5877  5878    1
  5909  5877  6170    1
  5910  5877  6171    1
  5911  5878  5879    1
  5912  5878  5880    2
  5913  5881  5997    1
  5914  5881  6172    1
  5915  5882  5883    1
  5916  5882  5886    2
  5917  5882  5887    1
  5918  5883  5884    2
  5919  5883  5885    1
  5920  5884  6173    1
  5921  5884  6174    1
  5922  5885  6175    1
  5923  5885  6176    1
  5924  5885  6177    1
  5925  5887  5888    1
  5926  5888  5889    1
  5927  5888  6178    1
  5928  5888  6179    1
  5929  5889  5890    1
  5930  5889  5900    1
  5931  5889  6180    1
  5932  5890  6181    1
  5933  5890  6182    1
  5934  5890  6183    1
  5935  5891  5892    1
  5936  5891  5895    1
  5937  5891  5903    1
  5938  5891  6184    1
  5939  5892  5893    1
  5940  5892  6185    1
  5941  5892  6186    1
  5942  5893  5894    1
  5943  5893  6187    1
  5944  5893  6188    1
  5945  5894  5902    1
  5946  5895  5896    1
  5947  5895  6189    1
  5948  5895  6190    1
  5949  5896  5897    1
  5950  5896  6191    1
  5951  5896  6192    1
  5952  5897  5898    1
  5953  5897  6193    1
  5954  5897  6194    1
  5955  5898  5899    1
  5956  5898  6195    1
  5957  5898  6196    1
  5958  5899  5900    1
  5959  5899  5901    2
  5960  5902  6197    1
  5961  5902  6198    1
  5962  5902  6199    1
  5963  5904  5905    1
  5964  5904  5908    2
  5965  5904  5909    1
  5966  5905  5906    2
  5967  5905  5907    1
  5968  5906  6200    1
  5969  5906  6201    1
  5970  5907  6202    1
  5971  5907  6203    1
  5972  5907  6204    1
  5973  5909  5910    1
  5974  5910  5911    1
  5975  5910  6205    1
  5976  5910  6206    1
  5977  5911  5912    1
  5978  5911  5923    1
  5979  5911  6207    1
  5980  5912  6208    1
  5981  5912  6209    1
  5982  5912  6210    1
  5983  5913  5914    1
  5984  5914  5915    1
  5985  5914  5918    1
  5986  5914  6211    1
  5987  5915  5916    1
  5988  5915  6212    1
  5989  5915  6213    1
  5990  5916  5917    1
  5991  5916  6214    1
  5992  5916  6215    1
  5993  5917  5925    1
  5994  5918  5919    1
  5995  5918  6216    1
  5996  5918  6217    1
  5997  5919  5920    1
  5998  5919  6218    1
  5999  5919  6219    1
  6000  5920  5921    1
  6001  5920  6220    1
  6002  5920  6221    1
  6003  5921  5922    1
  6004  5921  6222    1
  6005  5921  6223    1
  6006  5922  5923    1
  6007  5922  5924    2
  6008  5926  5927    1
  6009  5926  5937    1
  6010  5926  6224    1
  6011  5926  6225    1
  6012  5927  5928    1
  6013  5927  6226    1
  6014  5927  6227    1
  6015  5928  5929    1
  6016  5928  6228    1
  6017  5928  6229    1
  6018  5929  5930    1
  6019  5929  6230    1
  6020  5929  6231    1
  6021  5930  5931    1
  6022  5930  6232    1
  6023  5930  6233    1
  6024  5931  5932    1
  6025  5931  6234    1
  6026  5931  6235    1
  6027  5932  5933    1
  6028  5932  6236    1
  6029  5932  6237    1
  6030  5933  5934    1
  6031  5933  6238    1
  6032  5933  6239    1
  6033  5934  5935    1
  6034  5934  6240    1
  6035  5934  6241    1
  6036  5935  5936    1
  6037  5935  6242    1
  6038  5935  6243    1
  6039  5936  5940    1
  6040  5936  6244    1
  6041  5936  6245    1
  6042  5937  6246    1
  6043  5937  6247    1
  6044  5937  6248    1
  6045  5938  5939    1
  6046  5938  5942    1
  6047  5938  5943    1
  6048  5938  6249    1
  6049  5939  5940    1
  6050  5939  5941    2
  6051  5942  6250    1
  6052  5942  6251    1
  6053  5942  6252    1
  6054  5943  6253    1
  6055  5943  6254    1
  6056  5944  6255    1
  6057  5944  6256    1
  6058  5944  6257    1
  6059  5945  5947    2
  6060  5946  5947    1
  6061  5946  6258    1
  6062  5947  5948    1
  6063  5948  5949    1
  6064  5948  6259    1
  6065  5948  6260    1
  6066  5949  5950    1
  6067  5949  6261    1
  6068  5949  6262    1
  6069  5950  5951    1
  6070  5950  6263    1
  6071  5950  6264    1
  6072  5951  5976    1
  6073  5951  6265    1
  6074  5951  6266    1
  6075  5952  5953    1
  6076  5952  6008    1
  6077  5953  5954    1
  6078  5953  6267    1
  6079  5953  6268    1
  6080  5954  5976    1
  6081  5954  6269    1
  6082  5954  6270    1
  6083  5955  5956    1
  6084  5955  5959    2
  6085  5955  5960    1
  6086  5956  5957    1
  6087  5956  5958    1
  6088  5956  6039    1
  6089  5957  6038    1
  6090  5957  6271    1
  6091  5957  6272    1
  6092  5958  6273    1
  6093  5958  6274    1
  6094  5958  6275    1
  6095  5960  5961    1
  6096  5961  5962    1
  6097  5961  6276    1
  6098  5961  6277    1
  6099  5962  5963    1
  6100  5962  5973    1
  6101  5962  6278    1
  6102  5963  6279    1
  6103  5963  6280    1
  6104  5963  6281    1
  6105  5964  5965    1
  6106  5964  5968    1
  6107  5964  6020    1
  6108  5964  6282    1
  6109  5965  5966    1
  6110  5965  6283    1
  6111  5965  6284    1
  6112  5966  5967    1
  6113  5966  6285    1
  6114  5966  6286    1
  6115  5967  5998    1
  6116  5968  5969    1
  6117  5968  6287    1
  6118  5968  6288    1
  6119  5969  5970    1
  6120  5969  6289    1
  6121  5969  6290    1
  6122  5970  5971    1
  6123  5970  6291    1
  6124  5970  6292    1
  6125  5971  5972    1
  6126  5971  6293    1
  6127  5971  6294    1
  6128  5972  5973    1
  6129  5972  5974    2
  6130  5975  5976    1
  6131  5975  6085    1
  6132  5976  6295    1
  6133  5977  5978    1
  6134  5977  5981    2
  6135  5977  5982    1
  6136  5978  5979    2
  6137  5978  5980    1
  6138  5979  6296    1
  6139  5979  6297    1
  6140  5980  6298    1
  6141  5980  6299    1
  6142  5980  6300    1
  6143  5982  5983    1
  6144  5983  5984    1
  6145  5983  6301    1
  6146  5983  6302    1
  6147  5984  5985    1
  6148  5984  5995    1
  6149  5984  6303    1
  6150  5985  6304    1
  6151  5985  6305    1
  6152  5985  6306    1
  6153  5986  5987    1
  6154  5986  5990    1
  6155  5986  5998    1
  6156  5986  6307    1
  6157  5987  5988    1
  6158  5987  6308    1
  6159  5987  6309    1
  6160  5988  5989    1
  6161  5988  6310    1
  6162  5988  6311    1
  6163  5989  5997    1
  6164  5990  5991    1
  6165  5990  6312    1
  6166  5990  6313    1
  6167  5991  5992    1
  6168  5991  6314    1
  6169  5991  6315    1
  6170  5992  5993    1
  6171  5992  6316    1
  6172  5992  6317    1
  6173  5993  5994    1
  6174  5993  6318    1
  6175  5993  6319    1
  6176  5994  5995    1
  6177  5994  5996    2
  6178  5999  6000    1
  6179  5999  6003    2
  6180  5999  6004    1
  6181  6000  6001    2
  6182  6000  6002    1
  6183  6001  6320    1
  6184  6001  6321    1
  6185  6002  6322    1
  6186  6002  6323    1
  6187  6002  6324    1
  6188  6004  6005    1
  6189  6005  6006    1
  6190  6005  6325    1
  6191  6005  6326    1
  6192  6006  6007    1
  6193  6006  6018    1
  6194  6006  6327    1
  6195  6007  6328    1
  6196  6007  6329    1
  6197  6007  6330    1
  6198  6008  6009    1
  6199  6009  6010    1
  6200  6009  6013    1
  6201  6009  6331    1
  6202  6010  6011    1
  6203  6010  6332    1
  6204  6010  6333    1
  6205  6011  6012    1
  6206  6011  6334    1
  6207  6011  6335    1
  6208  6012  6020    2
  6209  6013  6014    1
  6210  6013  6336    1
  6211  6013  6337    1
  6212  6014  6015    1
  6213  6014  6338    1
  6214  6014  6339    1
  6215  6015  6016    1
  6216  6015  6340    1
  6217  6015  6341    1
  6218  6016  6017    1
  6219  6016  6342    1
  6220  6016  6343    1
  6221  6017  6018    1
  6222  6017  6019    2
  6223  6021  6022    1
  6224  6021  6032    1
  6225  6021  6344    1
  6226  6021  6345    1
  6227  6022  6023    1
  6228  6022  6346    1
  6229  6022  6347    1
  6230  6023  6024    1
  6231  6023  6348    1
  6232  6023  6349    1
  6233  6024  6025    1
  6234  6024  6350    1
  6235  6024  6351    1
  6236  6025  6026    1
  6237  6025  6352    1
  6238  6025  6353    1
  6239  6026  6027    1
  6240  6026  6354    1
  6241  6026  6355    1
  6242  6027  6028    1
  6243  6027  6356    1
  6244  6027  6357    1
  6245  6028  6029    1
  6246  6028  6358    1
  6247  6028  6359    1
  6248  6029  6030    1
  6249  6029  6360    1
  6250  6029  6361    1
  6251  6030  6031    1
  6252  6030  6362    1
  6253  6030  6363    1
  6254  6031  6035    1
  6255  6031  6364    1
  6256  6031  6365    1
  6257  6032  6366    1
  6258  6032  6367    1
  6259  6032  6368    1
  6260  6033  6034    1
  6261  6033  6037    1
  6262  6033  6038    1
  6263  6033  6369    1
  6264  6034  6035    1
  6265  6034  6036    2
  6266  6037  6370    1
  6267  6037  6371    1
  6268  6037  6372    1
  6269  6038  6373    1
  6270  6038  6374    1
  6271  6039  6375    1
  6272  6039  6376    1
  6273  6039  6377    1
  6274  6040  6042    2
  6275  6041  6042    1
  6276  6041  6378    1
  6277  6042  6043    1
  6278  6043  6044    1
  6279  6043  6379    1
  6280  6043  6380    1
  6281  6044  6045    1
  6282  6044  6381    1
  6283  6044  6382    1
  6284  6045  6046    1
  6285  6045  6383    1
  6286  6045  6384    1
  6287  6046  6071    1
  6288  6046  6385    1
  6289  6046  6386    1
  6290  6047  6048    1
  6291  6047  6103    1
  6292  6048  6049    1
  6293  6048  6387    1
  6294  6048  6388    1
  6295  6049  6071    1
  6296  6049  6389    1
  6297  6049  6390    1
  6298  6050  6051    1
  6299  6050  6054    2
  6300  6050  6055    1
  6301  6051  6052    1
  6302  6051  6053    1
  6303  6051  6134    1
  6304  6052  6133    1
  6305  6052  6391    1
  6306  6052  6392    1
  6307  6053  6393    1
  6308  6053  6394    1
  6309  6053  6395    1
  6310  6055  6056    1
  6311  6056  6057    1
  6312  6056  6396    1
  6313  6056  6397    1
  6314  6057  6058    1
  6315  6057  6068    1
  6316  6057  6398    1
  6317  6058  6399    1
  6318  6058  6400    1
  6319  6058  6401    1
  6320  6059  6060    1
  6321  6059  6063    1
  6322  6059  6115    1
  6323  6059  6402    1
  6324  6060  6061    1
  6325  6060  6403    1
  6326  6060  6404    1
  6327  6061  6062    1
  6328  6061  6405    1
  6329  6061  6406    1
  6330  6062  6093    1
  6331  6063  6064    1
  6332  6063  6407    1
  6333  6063  6408    1
  6334  6064  6065    1
  6335  6064  6409    1
  6336  6064  6410    1
  6337  6065  6066    1
  6338  6065  6411    1
  6339  6065  6412    1
  6340  6066  6067    1
  6341  6066  6413    1
  6342  6066  6414    1
  6343  6067  6068    1
  6344  6067  6069    2
  6345  6070  6071    1
  6346  6070  6072    1
  6347  6071  6415    1
  6348  6072  6416    1
  6349  6072  6417    1
  6350  6072  6418    1
  6351  6073  6074    1
  6352  6073  6077    2
  6353  6073  6078    1
  6354  6074  6075    2
  6355  6074  6076    1
  6356  6075  6419    1
  6357  6075  6420    1
  6358  6076  6421    1
  6359  6076  6422    1
  6360  6076  6423    1
  6361  6078  6079    1
  6362  6079  6080    1
  6363  6079  6424    1
  6364  6079  6425    1
  6365  6080  6081    1
  6366  6080  6091    1
  6367  6080  6426    1
  6368  6081  6427    1
  6369  6081  6428    1
  6370  6081  6429    1
  6371  6082  6083    1
  6372  6082  6086    1
  6373  6082  6093    1
  6374  6082  6430    1
  6375  6083  6084    1
  6376  6083  6431    1
  6377  6083  6432    1
  6378  6084  6085    1
  6379  6084  6433    1
  6380  6084  6434    1
  6381  6086  6087    1
  6382  6086  6435    1
  6383  6086  6436    1
  6384  6087  6088    1
  6385  6087  6437    1
  6386  6087  6438    1
  6387  6088  6089    1
  6388  6088  6439    1
  6389  6088  6440    1
  6390  6089  6090    1
  6391  6089  6441    1
  6392  6089  6442    1
  6393  6090  6091    1
  6394  6090  6092    2
  6395  6094  6095    1
  6396  6094  6098    2
  6397  6094  6099    1
  6398  6095  6096    2
  6399  6095  6097    1
  6400  6096  6443    1
  6401  6096  6444    1
  6402  6097  6445    1
  6403  6097  6446    1
  6404  6097  6447    1
  6405  6099  6100    1
  6406  6100  6101    1
  6407  6100  6448    1
  6408  6100  6449    1
  6409  6101  6102    1
  6410  6101  6113    1
  6411  6101  6450    1
  6412  6102  6451    1
  6413  6102  6452    1
  6414  6102  6453    1
  6415  6103  6104    1
  6416  6104  6105    1
  6417  6104  6108    1
  6418  6104  6454    1
  6419  6105  6106    1
  6420  6105  6455    1
  6421  6105  6456    1
  6422  6106  6107    1
  6423  6106  6457    1
  6424  6106  6458    1
  6425  6107  6115    1
  6426  6108  6109    1
  6427  6108  6459    1
  6428  6108  6460    1
  6429  6109  6110    1
  6430  6109  6461    1
  6431  6109  6462    1
  6432  6110  6111    1
  6433  6110  6463    1
  6434  6110  6464    1
  6435  6111  6112    1
  6436  6111  6465    1
  6437  6111  6466    1
  6438  6112  6113    1
  6439  6112  6114    2
  6440  6116  6117    1
  6441  6116  6127    1
  6442  6116  6467    1
  6443  6116  6468    1
  6444  6117  6118    1
  6445  6117  6469    1
  6446  6117  6470    1
  6447  6118  6119    1
  6448  6118  6471    1
  6449  6118  6472    1
  6450  6119  6120    1
  6451  6119  6473    1
  6452  6119  6474    1
  6453  6120  6121    1
  6454  6120  6475    1
  6455  6120  6476    1
  6456  6121  6122    1
  6457  6121  6477    1
  6458  6121  6478    1
  6459  6122  6123    1
  6460  6122  6479    1
  6461  6122  6480    1
  6462  6123  6124    1
  6463  6123  6481    1
  6464  6123  6482    1
  6465  6124  6125    1
  6466  6124  6483    1
  6467  6124  6484    1
  6468  6125  6126    1
  6469  6125  6485    1
  6470  6125  6486    1
  6471  6126  6130    1
  6472  6126  6487    1
  6473  6126  6488    1
  6474  6127  6489    1
  6475  6127  6490    1
  6476  6127  6491    1
  6477  6128  6129    1
  6478  6128  6132    1
  6479  6128  6133    1
  6480  6128  6492    1
  6481  6129  6130    1
  6482  6129  6131    2
  6483  6132  6493    1
  6484  6132  6494    1
  6485  6132  6495    1
  6486  6133  6496    1
  6487  6133  6497    1
  6488  6134  6498    1
  6489  6134  6499    1
  6490  6134  6500    1
  6491  6501  6503    2
  6492  6502  6503    1
  6493  6502  6785    1
  6494  6503  6504    1
  6495  6504  6505    1
  6496  6504  6786    1
  6497  6504  6787    1
  6498  6505  6506    1
  6499  6505  6788    1
  6500  6505  6789    1
  6501  6506  6507    1
  6502  6506  6790    1
  6503  6506  6791    1
  6504  6507  6531    1
  6505  6507  6792    1
  6506  6507  6793    1
  6507  6508  6509    1
  6508  6508  6563    2
  6509  6509  6510    1
  6510  6509  6794    1
  6511  6509  6795    1
  6512  6510  6531    1
  6513  6510  6796    1
  6514  6510  6797    1
  6515  6511  6512    1
  6516  6511  6515    2
  6517  6511  6516    1
  6518  6512  6513    1
  6519  6512  6514    1
  6520  6512  6594    1
  6521  6513  6593    1
  6522  6513  6798    1
  6523  6513  6799    1
  6524  6514  6800    1
  6525  6514  6801    1
  6526  6514  6802    1
  6527  6516  6517    1
  6528  6517  6518    1
  6529  6517  6803    1
  6530  6517  6804    1
  6531  6518  6519    1
  6532  6518  6529    1
  6533  6518  6805    1
  6534  6519  6806    1
  6535  6519  6807    1
  6536  6519  6808    1
  6537  6520  6521    1
  6538  6520  6524    1
  6539  6520  6575    1
  6540  6520  6809    1
  6541  6521  6522    1
  6542  6521  6810    1
  6543  6521  6811    1
  6544  6522  6523    1
  6545  6522  6812    1
  6546  6522  6813    1
  6547  6523  6553    1
  6548  6524  6525    1
  6549  6524  6814    1
  6550  6524  6815    1
  6551  6525  6526    1
  6552  6525  6816    1
  6553  6525  6817    1
  6554  6526  6527    1
  6555  6526  6818    1
  6556  6526  6819    1
  6557  6527  6528    1
  6558  6527  6820    1
  6559  6527  6821    1
  6560  6528  6529    1
  6561  6528  6530    2
  6562  6531  6647    1
  6563  6531  6822    1
  6564  6532  6533    1
  6565  6532  6536    2
  6566  6532  6537    1
  6567  6533  6534    2
  6568  6533  6535    1
  6569  6534  6823    1
  6570  6534  6824    1
  6571  6535  6825    1
  6572  6535  6826    1
  6573  6535  6827    1
  6574  6537  6538    1
  6575  6538  6539    1
  6576  6538  6828    1
  6577  6538  6829    1
  6578  6539  6540    1
  6579  6539  6550    1
  6580  6539  6830    1
  6581  6540  6831    1
  6582  6540  6832    1
  6583  6540  6833    1
  6584  6541  6542    1
  6585  6541  6545    1
  6586  6541  6553    1
  6587  6541  6834    1
  6588  6542  6543    1
  6589  6542  6835    1
  6590  6542  6836    1
  6591  6543  6544    1
  6592  6543  6837    1
  6593  6543  6838    1
  6594  6544  6552    1
  6595  6545  6546    1
  6596  6545  6839    1
  6597  6545  6840    1
  6598  6546  6547    1
  6599  6546  6841    1
  6600  6546  6842    1
  6601  6547  6548    1
  6602  6547  6843    1
  6603  6547  6844    1
  6604  6548  6549    1
  6605  6548  6845    1
  6606  6548  6846    1
  6607  6549  6550    1
  6608  6549  6551    2
  6609  6552  6847    1
  6610  6552  6848    1
  6611  6552  6849    1
  6612  6554  6555    1
  6613  6554  6558    2
  6614  6554  6559    1
  6615  6555  6556    2
  6616  6555  6557    1
  6617  6556  6850    1
  6618  6556  6851    1
  6619  6557  6852    1
  6620  6557  6853    1
  6621  6557  6854    1
  6622  6559  6560    1
  6623  6560  6561    1
  6624  6560  6855    1
  6625  6560  6856    1
  6626  6561  6562    1
  6627  6561  6573    1
  6628  6561  6857    1
  6629  6562  6858    1
  6630  6562  6859    1
  6631  6562  6860    1
  6632  6563  6564    1
  6633  6564  6565    1
  6634  6564  6568    1
  6635  6564  6861    1
  6636  6565  6566    1
  6637  6565  6862    1
  6638  6565  6863    1
  6639  6566  6567    1
  6640  6566  6864    1
  6641  6566  6865    1
  6642  6567  6575    1
  6643  6568  6569    1
  6644  6568  6866    1
  6645  6568  6867    1
  6646  6569  6570    1
  6647  6569  6868    1
  6648  6569  6869    1
  6649  6570  6571    1
  6650  6570  6870    1
  6651  6570  6871    1
  6652  6571  6572    1
  6653  6571  6872    1
  6654  6571  6873    1
  6655  6572  6573    1
  6656  6572  6574    2
  6657  6576  6577    1
  6658  6576  6587    1
  6659  6576  6874    1
  6660  6576  6875    1
  6661  6577  6578    1
  6662  6577  6876    1
  6663  6577  6877    1
  6664  6578  6579    1
  6665  6578  6878    1
  6666  6578  6879    1
  6667  6579  6580    1
  6668  6579  6880    1
  6669  6579  6881    1
  6670  6580  6581    1
  6671  6580  6882    1
  6672  6580  6883    1
  6673  6581  6582    1
  6674  6581  6884    1
  6675  6581  6885    1
  6676  6582  6583    1
  6677  6582  6886    1
  6678  6582  6887    1
  6679  6583  6584    1
  6680  6583  6888    1
  6681  6583  6889    1
  6682  6584  6585    1
  6683  6584  6890    1
  6684  6584  6891    1
  6685  6585  6586    1
  6686  6585  6892    1
  6687  6585  6893    1
  6688  6586  6590    1
  6689  6586  6894    1
  6690  6586  6895    1
  6691  6587  6896    1
  6692  6587  6897    1
  6693  6587  6898    1
  6694  6588  6589    1
  6695  6588  6592    1
  6696  6588  6593    1
  6697  6588  6899    1
  6698  6589  6590    1
  6699  6589  6591    2
  6700  6592  6900    1
  6701  6592  6901    1
  6702  6592  6902    1
  6703  6593  6903    1
  6704  6593  6904    1
  6705  6594  6905    1
  6706  6594  6906    1
  6707  6594  6907    1
  6708  6595  6597    2
  6709  6596  6597    1
  6710  6596  6908    1
  6711  6597  6598    1
  6712  6598  6599    1
  6713  6598  6909    1
  6714  6598  6910    1
  6715  6599  6600    1
  6716  6599  6911    1
  6717  6599  6912    1
  6718  6600  6601    1
  6719  6600  6913    1
  6720  6600  6914    1
  6721  6601  6626    1
  6722  6601  6915    1
  6723  6601  6916    1
  6724  6602  6603    1
  6725  6602  6658    1
  6726  6603  6604    1
  6727  6603  6917    1
  6728  6603  6918    1
  6729  6604  6626    1
  6730  6604  6919    1
  6731  6604  6920    1
  6732  6605  6606    1
  6733  6605  6609    2
  6734  6605  6610    1
  6735  6606  6607    1
  6736  6606  6608    1
  6737  6606  6689    1
  6738  6607  6688    1
  6739  6607  6921    1
  6740  6607  6922    1
  6741  6608  6923    1
  6742  6608  6924    1
  6743  6608  6925    1
  6744  6610  6611    1
  6745  6611  6612    1
  6746  6611  6926    1
  6747  6611  6927    1
  6748  6612  6613    1
  6749  6612  6623    1
  6750  6612  6928    1
  6751  6613  6929    1
  6752  6613  6930    1
  6753  6613  6931    1
  6754  6614  6615    1
  6755  6614  6618    1
  6756  6614  6670    1
  6757  6614  6932    1
  6758  6615  6616    1
  6759  6615  6933    1
  6760  6615  6934    1
  6761  6616  6617    1
  6762  6616  6935    1
  6763  6616  6936    1
  6764  6617  6648    1
  6765  6618  6619    1
  6766  6618  6937    1
  6767  6618  6938    1
  6768  6619  6620    1
  6769  6619  6939    1
  6770  6619  6940    1
  6771  6620  6621    1
  6772  6620  6941    1
  6773  6620  6942    1
  6774  6621  6622    1
  6775  6621  6943    1
  6776  6621  6944    1
  6777  6622  6623    1
  6778  6622  6624    2
  6779  6625  6626    1
  6780  6625  6735    1
  6781  6626  6945    1
  6782  6627  6628    1
  6783  6627  6631    2
  6784  6627  6632    1
  6785  6628  6629    2
  6786  6628  6630    1
  6787  6629  6946    1
  6788  6629  6947    1
  6789  6630  6948    1
  6790  6630  6949    1
  6791  6630  6950    1
  6792  6632  6633    1
  6793  6633  6634    1
  6794  6633  6951    1
  6795  6633  6952    1
  6796  6634  6635    1
  6797  6634  6645    1
  6798  6634  6953    1
  6799  6635  6954    1
  6800  6635  6955    1
  6801  6635  6956    1
  6802  6636  6637    1
  6803  6636  6640    1
  6804  6636  6648    1
  6805  6636  6957    1
  6806  6637  6638    1
  6807  6637  6958    1
  6808  6637  6959    1
  6809  6638  6639    1
  6810  6638  6960    1
  6811  6638  6961    1
  6812  6639  6647    1
  6813  6640  6641    1
  6814  6640  6962    1
  6815  6640  6963    1
  6816  6641  6642    1
  6817  6641  6964    1
  6818  6641  6965    1
  6819  6642  6643    1
  6820  6642  6966    1
  6821  6642  6967    1
  6822  6643  6644    1
  6823  6643  6968    1
  6824  6643  6969    1
  6825  6644  6645    1
  6826  6644  6646    2
  6827  6649  6650    1
  6828  6649  6653    2
  6829  6649  6654    1
  6830  6650  6651    2
  6831  6650  6652    1
  6832  6651  6970    1
  6833  6651  6971    1
  6834  6652  6972    1
  6835  6652  6973    1
  6836  6652  6974    1
  6837  6654  6655    1
  6838  6655  6656    1
  6839  6655  6975    1
  6840  6655  6976    1
  6841  6656  6657    1
  6842  6656  6668    1
  6843  6656  6977    1
  6844  6657  6978    1
  6845  6657  6979    1
  6846  6657  6980    1
  6847  6658  6659    1
  6848  6659  6660    1
  6849  6659  6663    1
  6850  6659  6981    1
  6851  6660  6661    1
  6852  6660  6982    1
  6853  6660  6983    1
  6854  6661  6662    1
  6855  6661  6984    1
  6856  6661  6985    1
  6857  6662  6670    2
  6858  6663  6664    1
  6859  6663  6986    1
  6860  6663  6987    1
  6861  6664  6665    1
  6862  6664  6988    1
  6863  6664  6989    1
  6864  6665  6666    1
  6865  6665  6990    1
  6866  6665  6991    1
  6867  6666  6667    1
  6868  6666  6992    1
  6869  6666  6993    1
  6870  6667  6668    1
  6871  6667  6669    2
  6872  6671  6672    1
  6873  6671  6682    1
  6874  6671  6994    1
  6875  6671  6995    1
  6876  6672  6673    1
  6877  6672  6996    1
  6878  6672  6997    1
  6879  6673  6674    1
  6880  6673  6998    1
  6881  6673  6999    1
  6882  6674  6675    1
  6883  6674  7000    1
  6884  6674  7001    1
  6885  6675  6676    1
  6886  6675  7002    1
  6887  6675  7003    1
  6888  6676  6677    1
  6889  6676  7004    1
  6890  6676  7005    1
  6891  6677  6678    1
  6892  6677  7006    1
  6893  6677  7007    1
  6894  6678  6679    1
  6895  6678  7008    1
  6896  6678  7009    1
  6897  6679  6680    1
  6898  6679  7010    1
  6899  6679  7011    1
  6900  6680  6681    1
  6901  6680  7012    1
  6902  6680  7013    1
  6903  6681  6685    1
  6904  6681  7014    1
  6905  6681  7015    1
  6906  6682  7016    1
  6907  6682  7017    1
  6908  6682  7018    1
  6909  6683  6684    1
  6910  6683  6687    1
  6911  6683  6688    1
  6912  6683  7019    1
  6913  6684  6685    1
  6914  6684  6686    2
  6915  6687  7020    1
  6916  6687  7021    1
  6917  6687  7022    1
  6918  6688  7023    1
  6919  6688  7024    1
  6920  6689  7025    1
  6921  6689  7026    1
  6922  6689  7027    1
  6923  6690  6692    2
  6924  6691  6692    1
  6925  6691  7028    1
  6926  6692  6693    1
  6927  6693  6694    1
  6928  6693  7029    1
  6929  6693  7030    1
  6930  6694  6695    1
  6931  6694  7031    1
  6932  6694  7032    1
  6933  6695  6696    1
  6934  6695  7033    1
  6935  6695  7034    1
  6936  6696  6721    1
  6937  6696  7035    1
  6938  6696  7036    1
  6939  6697  6698    1
  6940  6697  6753    1
  6941  6698  6699    1
  6942  6698  7037    1
  6943  6698  7038    1
  6944  6699  6721    1
  6945  6699  7039    1
  6946  6699  7040    1
  6947  6700  6701    1
  6948  6700  6704    2
  6949  6700  6705    1
  6950  6701  6702    1
  6951  6701  6703    1
  6952  6701  6784    1
  6953  6702  6783    1
  6954  6702  7041    1
  6955  6702  7042    1
  6956  6703  7043    1
  6957  6703  7044    1
  6958  6703  7045    1
  6959  6705  6706    1
  6960  6706  6707    1
  6961  6706  7046    1
  6962  6706  7047    1
  6963  6707  6708    1
  6964  6707  6718    1
  6965  6707  7048    1
  6966  6708  7049    1
  6967  6708  7050    1
  6968  6708  7051    1
  6969  6709  6710    1
  6970  6709  6713    1
  6971  6709  6765    1
  6972  6709  7052    1
  6973  6710  6711    1
  6974  6710  7053    1
  6975  6710  7054    1
  6976  6711  6712    1
  6977  6711  7055    1
  6978  6711  7056    1
  6979  6712  6743    1
  6980  6713  6714    1
  6981  6713  7057    1
  6982  6713  7058    1
  6983  6714  6715    1
  6984  6714  7059    1
  6985  6714  7060    1
  6986  6715  6716    1
  6987  6715  7061    1
  6988  6715  7062    1
  6989  6716  6717    1
  6990  6716  7063    1
  6991  6716  7064    1
  6992  6717  6718    1
  6993  6717  6719    2
  6994  6720  6721    1
  6995  6720  6722    1
  6996  6721  7065    1
  6997  6722  7066    1
  6998  6722  7067    1
  6999  6722  7068    1
  7000  6723  6724    1
  7001  6723  6727    2
  7002  6723  6728    1
  7003  6724  6725    2
  7004  6724  6726    1
  7005  6725  7069    1
  7006  6725  7070    1
  7007  6726  7071    1
  7008  6726  7072    1
  7009  6726  7073    1
  7010  6728  6729    1
  7011  6729  6730    1
  7012  6729  7074    1
  7013  6729  7075    1
  7014  6730  6731    1
  7015  6730  6741    1
  7016  6730  7076    1
  7017  6731  7077    1
  7018  6731  7078    1
  7019  6731  7079    1
  7020  6732  6733    1
  7021  6732  6736    1
  7022  6732  6743    1
  7023  6732  7080    1
  7024  6733  6734    1
  7025  6733  7081    1
  7026  6733  7082    1
  7027  6734  6735    1
  7028  6734  7083    1
  7029  6734  7084    1
  7030  6736  6737    1
  7031  6736  7085    1
  7032  6736  7086    1
  7033  6737  6738    1
  7034  6737  7087    1
  7035  6737  7088    1
  7036  6738  6739    1
  7037  6738  7089    1
  7038  6738  7090    1
  7039  6739  6740    1
  7040  6739  7091    1
  7041  6739  7092    1
  7042  6740  6741    1
  7043  6740  6742    2
  7044  6744  6745    1
  7045  6744  6748    2
  7046  6744  6749    1
  7047  6745  6746    2
  7048  6745  6747    1
  7049  6746  7093    1
  7050  6746  7094    1
  7051  6747  7095    1
  7052  6747  7096    1
  7053  6747  7097    1
  7054  6749  6750    1
  7055  6750  6751    1
  7056  6750  7098    1
  7057  6750  7099    1
  7058  6751  6752    1
  7059  6751  6763    1
  7060  6751  7100    1
  7061  6752  7101    1
  7062  6752  7102    1
  7063  6752  7103    1
  7064  6753  6754    1
  7065  6754  6755    1
  7066  6754  6758    1
  7067  6754  7104    1
  7068  6755  6756    1
  7069  6755  7105    1
  7070  6755  7106    1
  7071  6756  6757    1
  7072  6756  7107    1
  7073  6756  7108    1
  7074  6757  6765    1
  7075  6758  6759    1
  7076  6758  7109    1
  7077  6758  7110    1
  7078  6759  6760    1
  7079  6759  7111    1
  7080  6759  7112    1
  7081  6760  6761    1
  7082  6760  7113    1
  7083  6760  7114    1
  7084  6761  6762    1
  7085  6761  7115    1
  7086  6761  7116    1
  7087  6762  6763    1
  7088  6762  6764    2
  7089  6766  6767    1
  7090  6766  6777    1
  7091  6766  7117    1
  7092  6766  7118    1
  7093  6767  6768    1
  7094  6767  7119    1
  7095  6767  7120    1
  7096  6768  6769    1
  7097  6768  7121    1
  7098  6768  7122    1
  7099  6769  6770    1
  7100  6769  7123    1
  7101  6769  7124    1
  7102  6770  6771    1
  7103  6770  7125    1
  7104  6770  7126    1
  7105  6771  6772    1
  7106  6771  7127    1
  7107  6771  7128    1
  7108  6772  6773    1
  7109  6772  7129    1
  7110  6772  7130    1
  7111  6773  6774    1
  7112  6773  7131    1
  7113  6773  7132    1
  7114  6774  6775    1
  7115  6774  7133    1
  7116  6774  7134    1
  7117  6775  6776    1
  7118  6775  7135    1
  7119  6775  7136    1
  7120  6776  6780    1
  7121  6776  7137    1
  7122  6776  7138    1
  7123  6777  7139    1
  7124  6777  7140    1
  7125  6777  7141    1
  7126  6778  6779    1
  7127  6778  6782    1
  7128  6778  6783    1
  7129  6778  7142    1
  7130  6779  6780    1
  7131  6779  6781    2
  7132  6782  7143    1
  7133  6782  7144    1
  7134  6782  7145    1
  7135  6783  7146    1
  7136  6783  7147    1
  7137  6784  7148    1
  7138  6784  7149    1
  7139  6784  7150    1
  7140  7151  7153    2
  7141  7152  7153    1
  7142  7152  7435    1
  7143  7153  7154    1
  7144  7154  7155    1
  7145  7154  7436    1
  7146  7154  7437    1
  7147  7155  7156    1
  7148  7155  7438    1
  7149  7155  7439    1
  7150  7156  7157    1
  7151  7156  7440    1
  7152  7156  7441    1
  7153  7157  7181    1
  7154  7157  7442    1
  7155  7157  7443    1
  7156  7158  7159    1
  7157  7158  7213    2
  7158  7159  7160    1
  7159  7159  7444    1
  7160  7159  7445    1
  7161  7160  7181    1
  7162  7160  7446    1
  7163  7160  7447    1
  7164  7161  7162    1
  7165  7161  7165    2
  7166  7161  7166    1
  7167  7162  7163    1
  7168  7162  7164    1
  7169  7162  7244    1
  7170  7163  7243    1
  7171  7163  7448    1
  7172  7163  7449    1
  7173  7164  7450    1
  7174  7164  7451    1
  7175  7164  7452    1
  7176  7166  7167    1
  7177  7167  7168    1
  7178  7167  7453    1
  7179  7167  7454    1
  7180  7168  7169    1
  7181  7168  7179    1
  7182  7168  7455    1
  7183  7169  7456    1
  7184  7169  7457    1
  7185  7169  7458    1
  7186  7170  7171    1
  7187  7170  7174    1
  7188  7170  7225    1
  7189  7170  7459    1
  7190  7171  7172    1
  7191  7171  7460    1
  7192  7171  7461    1
  7193  7172  7173    1
  7194  7172  7462    1
  7195  7172  7463    1
  7196  7173  7203    1
  7197  7174  7175    1
  7198  7174  7464    1
  7199  7174  7465    1
  7200  7175  7176    1
  7201  7175  7466    1
  7202  7175  7467    1
  7203  7176  7177    1
  7204  7176  7468    1
  7205  7176  7469    1
  7206  7177  7178    1
  7207  7177  7470    1
  7208  7177  7471    1
  7209  7178  7179    1
  7210  7178  7180    2
  7211  7181  7297    1
  7212  7181  7472    1
  7213  7182  7183    1
  7214  7182  7186    2
  7215  7182  7187    1
  7216  7183  7184    2
  7217  7183  7185    1
  7218  7184  7473    1
  7219  7184  7474    1
  7220  7185  7475    1
  7221  7185  7476    1
  7222  7185  7477    1
  7223  7187  7188    1
  7224  7188  7189    1
  7225  7188  7478    1
  7226  7188  7479    1
  7227  7189  7190    1
  7228  7189  7200    1
  7229  7189  7480    1
  7230  7190  7481    1
  7231  7190  7482    1
  7232  7190  7483    1
  7233  7191  7192    1
  7234  7191  7195    1
  7235  7191  7203    1
  7236  7191  7484    1
  7237  7192  7193    1
  7238  7192  7485    1
  7239  7192  7486    1
  7240  7193  7194    1
  7241  7193  7487    1
  7242  7193  7488    1
  7243  7194  7202    1
  7244  7195  7196    1
  7245  7195  7489    1
  7246  7195  7490    1
  7247  7196  7197    1
  7248  7196  7491    1
  7249  7196  7492    1
  7250  7197  7198    1
  7251  7197  7493    1
  7252  7197  7494    1
  7253  7198  7199    1
  7254  7198  7495    1
  7255  7198  7496    1
  7256  7199  7200    1
  7257  7199  7201    2
  7258  7202  7497    1
  7259  7202  7498    1
  7260  7202  7499    1
  7261  7204  7205    1
  7262  7204  7208    2
  7263  7204  7209    1
  7264  7205  7206    2
  7265  7205  7207    1
  7266  7206  7500    1
  7267  7206  7501    1
  7268  7207  7502    1
  7269  7207  7503    1
  7270  7207  7504    1
  7271  7209  7210    1
  7272  7210  7211    1
  7273  7210  7505    1
  7274  7210  7506    1
  7275  7211  7212    1
  7276  7211  7223    1
  7277  7211  7507    1
  7278  7212  7508    1
  7279  7212  7509    1
  7280  7212  7510    1
  7281  7213  7214    1
  7282  7214  7215    1
  7283  7214  7218    1
  7284  7214  7511    1
  7285  7215  7216    1
  7286  7215  7512    1
  7287  7215  7513    1
  7288  7216  7217    1
  7289  7216  7514    1
  7290  7216  7515    1
  7291  7217  7225    1
  7292  7218  7219    1
  7293  7218  7516    1
  7294  7218  7517    1
  7295  7219  7220    1
  7296  7219  7518    1
  7297  7219  7519    1
  7298  7220  7221    1
  7299  7220  7520    1
  7300  7220  7521    1
  7301  7221  7222    1
  7302  7221  7522    1
  7303  7221  7523    1
  7304  7222  7223    1
  7305  7222  7224    2
  7306  7226  7227    1
  7307  7226  7237    1
  7308  7226  7524    1
  7309  7226  7525    1
  7310  7227  7228    1
  7311  7227  7526    1
  7312  7227  7527    1
  7313  7228  7229    1
  7314  7228  7528    1
  7315  7228  7529    1
  7316  7229  7230    1
  7317  7229  7530    1
  7318  7229  7531    1
  7319  7230  7231    1
  7320  7230  7532    1
  7321  7230  7533    1
  7322  7231  7232    1
  7323  7231  7534    1
  7324  7231  7535    1
  7325  7232  7233    1
  7326  7232  7536    1
  7327  7232  7537    1
  7328  7233  7234    1
  7329  7233  7538    1
  7330  7233  7539    1
  7331  7234  7235    1
  7332  7234  7540    1
  7333  7234  7541    1
  7334  7235  7236    1
  7335  7235  7542    1
  7336  7235  7543    1
  7337  7236  7240    1
  7338  7236  7544    1
  7339  7236  7545    1
  7340  7237  7546    1
  7341  7237  7547    1
  7342  7237  7548    1
  7343  7238  7239    1
  7344  7238  7242    1
  7345  7238  7243    1
  7346  7238  7549    1
  7347  7239  7240    1
  7348  7239  7241    2
  7349  7242  7550    1
  7350  7242  7551    1
  7351  7242  7552    1
  7352  7243  7553    1
  7353  7243  7554    1
  7354  7244  7555    1
  7355  7244  7556    1
  7356  7244  7557    1
  7357  7245  7247    2
  7358  7246  7247    1
  7359  7246  7558    1
  7360  7247  7248    1
  7361  7248  7249    1
  7362  7248  7559    1
  7363  7248  7560    1
  7364  7249  7250    1
  7365  7249  7561    1
  7366  7249  7562    1
  7367  7250  7251    1
  7368  7250  7563    1
  7369  7250  7564    1
  7370  7251  7276    1
  7371  7251  7565    1
  7372  7251  7566    1
  7373  7252  7253    1
  7374  7252  7308    1
  7375  7253  7254    1
  7376  7253  7567    1
  7377  7253  7568    1
  7378  7254  7276    1
  7379  7254  7569    1
  7380  7254  7570    1
  7381  7255  7256    1
  7382  7255  7259    2
  7383  7255  7260    1
  7384  7256  7257    1
  7385  7256  7258    1
  7386  7256  7339    1
  7387  7257  7338    1
  7388  7257  7571    1
  7389  7257  7572    1
  7390  7258  7573    1
  7391  7258  7574    1
  7392  7258  7575    1
  7393  7260  7261    1
  7394  7261  7262    1
  7395  7261  7576    1
  7396  7261  7577    1
  7397  7262  7263    1
  7398  7262  7273    1
  7399  7262  7578    1
  7400  7263  7579    1
  7401  7263  7580    1
  7402  7263  7581    1
  7403  7264  7265    1
  7404  7264  7268    1
  7405  7264  7320    1
  7406  7264  7582    1
  7407  7265  7266    1
  7408  7265  7583    1
  7409  7265  7584    1
  7410  7266  7267    1
  7411  7266  7585    1
  7412  7266  7586    1
  7413  7267  7298    1
  7414  7268  7269    1
  7415  7268  7587    1
  7416  7268  7588    1
  7417  7269  7270    1
  7418  7269  7589    1
  7419  7269  7590    1
  7420  7270  7271    1
  7421  7270  7591    1
  7422  7270  7592    1
  7423  7271  7272    1
  7424  7271  7593    1
  7425  7271  7594    1
  7426  7272  7273    1
  7427  7272  7274    2
  7428  7275  7276    1
  7429  7275  7385    1
  7430  7276  7595    1
  7431  7277  7278    1
  7432  7277  7281    2
  7433  7277  7282    1
  7434  7278  7279    2
  7435  7278  7280    1
  7436  7279  7596    1
  7437  7279  7597    1
  7438  7280  7598    1
  7439  7280  7599    1
  7440  7280  7600    1
  7441  7282  7283    1
  7442  7283  7284    1
  7443  7283  7601    1
  7444  7283  7602    1
  7445  7284  7285    1
  7446  7284  7295    1
  7447  7284  7603    1
  7448  7285  7604    1
  7449  7285  7605    1
  7450  7285  7606    1
  7451  7286  7287    1
  7452  7286  7290    1
  7453  7286  7298    1
  7454  7286  7607    1
  7455  7287  7288    1
  7456  7287  7608    1
  7457  7287  7609    1
  7458  7288  7289    1
  7459  7288  7610    1
  7460  7288  7611    1
  7461  7289  7297    1
  7462  7290  7291    1
  7463  7290  7612    1
  7464  7290  7613    1
  7465  7291  7292    1
  7466  7291  7614    1
  7467  7291  7615    1
  7468  7292  7293    1
  7469  7292  7616    1
  7470  7292  7617    1
  7471  7293  7294    1
  7472  7293  7618    1
  7473  7293  7619    1
  7474  7294  7295    1
  7475  7294  7296    2
  7476  7299  7300    1
  7477  7299  7303    2
  7478  7299  7304    1
  7479  7300  7301    2
  7480  7300  7302    1
  7481  7301  7620    1
  7482  7301  7621    1
  7483  7302  7622    1
  7484  7302  7623    1
  7485  7302  7624    1
  7486  7304  7305    1
  7487  7305  7306    1
  7488  7305  7625    1
  7489  7305  7626    1
  7490  7306  7307    1
  7491  7306  7318    1
  7492  7306  7627    1
  7493  7307  7628    1
  7494  7307  7629    1
  7495  7307  7630    1
  7496  7308  7309    1
  7497  7309  7310    1
  7498  7309  7313    1
  7499  7309  7631    1
  7500  7310  7311    1
  7501  7310  7632    1
  7502  7310  7633    1
  7503  7311  7312    1
  7504  7311  7634    1
  7505  7311  7635    1
  7506  7312  7320    2
  7507  7313  7314    1
  7508  7313  7636    1
  7509  7313  7637    1
  7510  7314  7315    1
  7511  7314  7638    1
  7512  7314  7639    1
  7513  7315  7316    1
  7514  7315  7640    1
  7515  7315  7641    1
  7516  7316  7317    1
  7517  7316  7642    1
  7518  7316  7643    1
  7519  7317  7318    1
  7520  7317  7319    2
  7521  7321  7322    1
  7522  7321  7332    1
  7523  7321  7644    1
  7524  7321  7645    1
  7525  7322  7323    1
  7526  7322  7646    1
  7527  7322  7647    1
  7528  7323  7324    1
  7529  7323  7648    1
  7530  7323  7649    1
  7531  7324  7325    1
  7532  7324  7650    1
  7533  7324  7651    1
  7534  7325  7326    1
  7535  7325  7652    1
  7536  7325  7653    1
  7537  7326  7327    1
  7538  7326  7654    1
  7539  7326  7655    1
  7540  7327  7328    1
  7541  7327  7656    1
  7542  7327  7657    1
  7543  7328  7329    1
  7544  7328  7658    1
  7545  7328  7659    1
  7546  7329  7330    1
  7547  7329  7660    1
  7548  7329  7661    1
  7549  7330  7331    1
  7550  7330  7662    1
  7551  7330  7663    1
  7552  7331  7335    1
  7553  7331  7664    1
  7554  7331  7665    1
  7555  7332  7666    1
  7556  7332  7667    1
  7557  7332  7668    1
  7558  7333  7334    1
  7559  7333  7337    1
  7560  7333  7338    1
  7561  7333  7669    1
  7562  7334  7335    1
  7563  7334  7336    2
  7564  7337  7670    1
  7565  7337  7671    1
  7566  7337  7672    1
  7567  7338  7673    1
  7568  7338  7674    1
  7569  7339  7675    1
  7570  7339  7676    1
  7571  7339  7677    1
  7572  7340  7342    2
  7573  7341  7342    1
  7574  7341  7678    1
  7575  7342  7343    1
  7576  7343  7344    1
  7577  7343  7679    1
  7578  7343  7680    1
  7579  7344  7345    1
  7580  7344  7681    1
  7581  7344  7682    1
  7582  7345  7346    1
  7583  7345  7683    1
  7584  7345  7684    1
  7585  7346  7371    1
  7586  7346  7685    1
  7587  7346  7686    1
  7588  7347  7348    1
  7589  7347  7403    1
  7590  7348  7349    1
  7591  7348  7687    1
  7592  7348  7688    1
  7593  7349  7371    1
  7594  7349  7689    1
  7595  7349  7690    1
  7596  7350  7351    1
  7597  7350  7354    2
  7598  7350  7355    1
  7599  7351  7352    1
  7600  7351  7353    1
  7601  7351  7434    1
  7602  7352  7433    1
  7603  7352  7691    1
  7604  7352  7692    1
  7605  7353  7693    1
  7606  7353  7694    1
  7607  7353  7695    1
  7608  7355  7356    1
  7609  7356  7357    1
  7610  7356  7696    1
  7611  7356  7697    1
  7612  7357  7358    1
  7613  7357  7368    1
  7614  7357  7698    1
  7615  7358  7699    1
  7616  7358  7700    1
  7617  7358  7701    1
  7618  7359  7360    1
  7619  7359  7363    1
  7620  7359  7415    1
  7621  7359  7702    1
  7622  7360  7361    1
  7623  7360  7703    1
  7624  7360  7704    1
  7625  7361  7362    1
  7626  7361  7705    1
  7627  7361  7706    1
  7628  7362  7393    1
  7629  7363  7364    1
  7630  7363  7707    1
  7631  7363  7708    1
  7632  7364  7365    1
  7633  7364  7709    1
  7634  7364  7710    1
  7635  7365  7366    1
  7636  7365  7711    1
  7637  7365  7712    1
  7638  7366  7367    1
  7639  7366  7713    1
  7640  7366  7714    1
  7641  7367  7368    1
  7642  7367  7369    2
  7643  7370  7371    1
  7644  7370  7372    1
  7645  7371  7715    1
  7646  7372  7716    1
  7647  7372  7717    1
  7648  7372  7718    1
  7649  7373  7374    1
  7650  7373  7377    2
  7651  7373  7378    1
  7652  7374  7375    2
  7653  7374  7376    1
  7654  7375  7719    1
  7655  7375  7720    1
  7656  7376  7721    1
  7657  7376  7722    1
  7658  7376  7723    1
  7659  7378  7379    1
  7660  7379  7380    1
  7661  7379  7724    1
  7662  7379  7725    1
  7663  7380  7381    1
  7664  7380  7391    1
  7665  7380  7726    1
  7666  7381  7727    1
  7667  7381  7728    1
  7668  7381  7729    1
  7669  7382  7383    1
  7670  7382  7386    1
  7671  7382  7393    1
  7672  7382  7730    1
  7673  7383  7384    1
  7674  7383  7731    1
  7675  7383  7732    1
  7676  7384  7385    1
  7677  7384  7733    1
  7678  7384  7734    1
  7679  7386  7387    1
  7680  7386  7735    1
  7681  7386  7736    1
  7682  7387  7388    1
  7683  7387  7737    1
  7684  7387  7738    1
  7685  7388  7389    1
  7686  7388  7739    1
  7687  7388  7740    1
  7688  7389  7390    1
  7689  7389  7741    1
  7690  7389  7742    1
  7691  7390  7391    1
  7692  7390  7392    2
  7693  7394  7395    1
  7694  7394  7398    2
  7695  7394  7399    1
  7696  7395  7396    2
  7697  7395  7397    1
  7698  7396  7743    1
  7699  7396  7744    1
  7700  7397  7745    1
  7701  7397  7746    1
  7702  7397  7747    1
  7703  7399  7400    1
  7704  7400  7401    1
  7705  7400  7748    1
  7706  7400  7749    1
  7707  7401  7402    1
  7708  7401  7413    1
  7709  7401  7750    1
  7710  7402  7751    1
  7711  7402  7752    1
  7712  7402  7753    1
  7713  7403  7404    1
  7714  7404  7405    1
  7715  7404  7408    1
  7716  7404  7754    1
  7717  7405  7406    1
  7718  7405  7755    1
  7719  7405  7756    1
  7720  7406  7407    1
  7721  7406  7757    1
  7722  7406  7758    1
  7723  7407  7415    1
  7724  7408  7409    1
  7725  7408  7759    1
  7726  7408  7760    1
  7727  7409  7410    1
  7728  7409  7761    1
  7729  7409  7762    1
  7730  7410  7411    1
  7731  7410  7763    1
  7732  7410  7764    1
  7733  7411  7412    1
  7734  7411  7765    1
  7735  7411  7766    1
  7736  7412  7413    1
  7737  7412  7414    2
  7738  7416  7417    1
  7739  7416  7427    1
  7740  7416  7767    1
  7741  7416  7768    1
  7742  7417  7418    1
  7743  7417  7769    1
  7744  7417  7770    1
  7745  7418  7419    1
  7746  7418  7771    1
  7747  7418  7772    1
  7748  7419  7420    1
  7749  7419  7773    1
  7750  7419  7774    1
  7751  7420  7421    1
  7752  7420  7775    1
  7753  7420  7776    1
  7754  7421  7422    1
  7755  7421  7777    1
  7756  7421  7778    1
  7757  7422  7423    1
  7758  7422  7779    1
  7759  7422  7780    1
  7760  7423  7424    1
  7761  7423  7781    1
  7762  7423  7782    1
  7763  7424  7425    1
  7764  7424  7783    1
  7765  7424  7784    1
  7766  7425  7426    1
  7767  7425  7785    1
  7768  7425  7786    1
  7769  7426  7430    1
  7770  7426  7787    1
  7771  7426  7788    1
  7772  7427  7789    1
  7773  7427  7790    1
  7774  7427  7791    1
  7775  7428  7429    1
  7776  7428  7432    1
  7777  7428  7433    1
  7778  7428  7792    1
  7779  7429  7430    1
  7780  7429  7431    2
  7781  7432  7793    1
  7782  7432  7794    1
  7783  7432  7795    1
  7784  7433  7796    1
  7785  7433  7797    1
  7786  7434  7798    1
  7787  7434  7799    1
  7788  7434  7800    1
  7789  7801  7803    2
  7790  7802  7803    1
  7791  7802  8085    1
  7792  7803  7804    1
  7793  7804  7805    1
  7794  7804  8086    1
  7795  7804  8087    1
  7796  7805  7806    1
  7797  7805  8088    1
  7798  7805  8089    1
  7799  7806  7807    1
  7800  7806  8090    1
  7801  7806  8091    1
  7802  7807  7831    1
  7803  7807  8092    1
  7804  7807  8093    1
  7805  7808  7809    1
  7806  7808  7863    2
  7807  7809  7810    1
  7808  7809  8094    1
  7809  7809  8095    1
  7810  7810  7831    1
  7811  7810  8096    1
  7812  7810  8097    1
  7813  7811  7812    1
  7814  7811  7815    2
  7815  7811  7816    1
  7816  7812  7813    1
  7817  7812  7814    1
  7818  7812  7894    1
  7819  7813  7893    1
  7820  7813  8098    1
  7821  7813  8099    1
  7822  7814  8100    1
  7823  7814  8101    1
  7824  7814  8102    1
  7825  7816  7817    1
  7826  7817  7818    1
  7827  7817  8103    1
  7828  7817  8104    1
  7829  7818  7819    1
  7830  7818  7829    1
  7831  7818  8105    1
  7832  7819  8106    1
  7833  7819  8107    1
  7834  7819  8108    1
  7835  7820  7821    1
  7836  7820  7824    1
  7837  7820  7875    1
  7838  7820  8109    1
  7839  7821  7822    1
  7840  7821  8110    1
  7841  7821  8111    1
  7842  7822  7823    1
  7843  7822  8112    1
  7844  7822  8113    1
  7845  7823  7853    1
  7846  7824  7825    1
  7847  7824  8114    1
  7848  7824  8115    1
  7849  7825  7826    1
  7850  7825  8116    1
  7851  7825  8117    1
  7852  7826  7827    1
  7853  7826  8118    1
  7854  7826  8119    1
  7855  7827  7828    1
  7856  7827  8120    1
  7857  7827  8121    1
  7858  7828  7829    1
  7859  7828  7830    2
  7860  7831  7947    1
  7861  7831  8122    1
  7862  7832  7833    1
  7863  7832  7836    2
  7864  7832  7837    1
  7865  7833  7834    2
  7866  7833  7835    1
  7867  7834  8123    1
  7868  7834  8124    1
  7869  7835  8125    1
  7870  7835  8126    1
  7871  7835  8127    1
  7872  7837  7838    1
  7873  7838  7839    1
  7874  7838  8128    1
  7875  7838  8129    1
  7876  7839  7840    1
  7877  7839  7850    1
  7878  7839  8130    1
  7879  7840  8131    1
  7880  7840  8132    1
  7881  7840  8133    1
  7882  7841  7842    1
  7883  7841  7845    1
  7884  7841  7853    1
  7885  7841  8134    1
  7886  7842  7843    1
  7887  7842  8135    1
  7888  7842  8136    1
  7889  7843  7844    1
  7890  7843  8137    1
  7891  7843  8138    1
  7892  7844  7852    1
  7893  7845  7846    1
  7894  7845  8139    1
  7895  7845  8140    1
  7896  7846  7847    1
  7897  7846  8141    1
  7898  7846  8142    1
  7899  7847  7848    1
  7900  7847  8143    1
  7901  7847  8144    1
  7902  7848  7849    1
  7903  7848  8145    1
  7904  7848  8146    1
  7905  7849  7850    1
  7906  7849  7851    2
  7907  7852  8147    1
  7908  7852  8148    1
  7909  7852  8149    1
  7910  7854  7855    1
  7911  7854  7858    2
  7912  7854  7859    1
  7913  7855  7856    2
  7914  7855  7857    1
  7915  7856  8150    1
  7916  7856  8151    1
  7917  7857  8152    1
  7918  7857  8153    1
  7919  7857  8154    1
  7920  7859  7860    1
  7921  7860  7861    1
  7922  7860  8155    1
  7923  7860  8156    1
  7924  7861  7862    1
  7925  7861  7873    1
  7926  7861  8157    1
  7927  7862  8158    1
  7928  7862  8159    1
  7929  7862  8160    1
  7930  7863  7864    1
  7931  7864  7865    1
  7932  7864  7868    1
  7933  7864  8161    1
  7934  7865  7866    1
  7935  7865  8162    1
  7936  7865  8163    1
  7937  7866  7867    1
  7938  7866  8164    1
  7939  7866  8165    1
  7940  7867  7875    1
  7941  7868  7869    1
  7942  7868  8166    1
  7943  7868  8167    1
  7944  7869  7870    1
  7945  7869  8168    1
  7946  7869  8169    1
  7947  7870  7871    1
  7948  7870  8170    1
  7949  7870  8171    1
  7950  7871  7872    1
  7951  7871  8172    1
  7952  7871  8173    1
  7953  7872  7873    1
  7954  7872  7874    2
  7955  7876  7877    1
  7956  7876  7887    1
  7957  7876  8174    1
  7958  7876  8175    1
  7959  7877  7878    1
  7960  7877  8176    1
  7961  7877  8177    1
  7962  7878  7879    1
  7963  7878  8178    1
  7964  7878  8179    1
  7965  7879  7880    1
  7966  7879  8180    1
  7967  7879  8181    1
  7968  7880  7881    1
  7969  7880  8182    1
  7970  7880  8183    1
  7971  7881  7882    1
  7972  7881  8184    1
  7973  7881  8185    1
  7974  7882  7883    1
  7975  7882  8186    1
  7976  7882  8187    1
  7977  7883  7884    1
  7978  7883  8188    1
  7979  7883  8189    1
  7980  7884  7885    1
  7981  7884  8190    1
  7982  7884  8191    1
  7983  7885  7886    1
  7984  7885  8192    1
  7985  7885  8193    1
  7986  7886  7890    1
  7987  7886  8194    1
  7988  7886  8195    1
  7989  7887  8196    1
  7990  7887  8197    1
  7991  7887  8198    1
  7992  7888  7889    1
  7993  7888  7892    1
  7994  7888  7893    1
  7995  7888  8199    1
  7996  7889  7890    1
  7997  7889  7891    2
  7998  7892  8200    1
  7999  7892  8201    1
  8000  7892  8202    1
  8001  7893  8203    1
  8002  7893  8204    1
  8003  7894  8205    1
  8004  7894  8206    1
  8005  7894  8207    1
  8006  7895  7897    2
  8007  7896  7897    1
  8008  7896  8208    1
  8009  7897  7898    1
  8010  7898  7899    1
  8011  7898  8209    1
  8012  7898  8210    1
  8013  7899  7900    1
  8014  7899  8211    1
  8015  7899  8212    1
  8016  7900  7901    1
  8017  7900  8213    1
  8018  7900  8214    1
  8019  7901  7926    1
  8020  7901  8215    1
  8021  7901  8216    1
  8022  7902  7903    1
  8023  7902  7958    1
  8024  7903  7904    1
  8025  7903  8217    1
  8026  7903  8218    1
  8027  7904  7926    1
  8028  7904  8219    1
  8029  7904  8220    1
  8030  7905  7906    1
  8031  7905  7909    2
  8032  7905  7910    1
  8033  7906  7907    1
  8034  7906  7908    1
  8035  7906  7989    1
  8036  7907  7988    1
  8037  7907  8221    1
  8038  7907  8222    1
  8039  7908  8223    1
  8040  7908  8224    1
  8041  7908  8225    1
  8042  7910  7911    1
  8043  7911  7912    1
  8044  7911  8226    1
  8045  7911  8227    1
  8046  7912  7913    1
  8047  7912  7923    1
  8048  7912  8228    1
  8049  7913  8229    1
  8050  7913  8230    1
  8051  7913  8231    1
  8052  7914  7915    1
  8053  7914  7918    1
  8054  7914  7970    1
  8055  7914  8232    1
  8056  7915  7916    1
  8057  7915  8233    1
  8058  7915  8234    1
  8059  7916  7917    1
  8060  7916  8235    1
  8061  7916  8236    1
  8062  7917  7948    1
  8063  7918  7919    1
  8064  7918  8237    1
  8065  7918  8238    1
  8066  7919  7920    1
  8067  7919  8239    1
  8068  7919  8240    1
  8069  7920  7921    1
  8070  7920  8241    1
  8071  7920  8242    1
  8072  7921  7922    1
  8073  7921  8243    1
  8074  7921  8244    1
  8075  7922  7923    1
  8076  7922  7924    2
  8077  7925  7926    1
  8078  7925  8035    1
  8079  7926  8245    1
  8080  7927  7928    1
  8081  7927  7931    2
  8082  7927  7932    1
  8083  7928  7929    2
  8084  7928  7930    1
  8085  7929  8246    1
  8086  7929  8247    1
  8087  7930  8248    1
  8088  7930  8249    1
  8089  7930  8250    1
  8090  7932  7933    1
  8091  7933  7934    1
  8092  7933  8251    1
  8093  7933  8252    1
  8094  7934  7935    1
  8095  7934  7945    1
  8096  7934  8253    1
  8097  7935  8254    1
  8098  7935  8255    1
  8099  7935  8256    1
  8100  7936  7937    1
  8101  7936  7940    1
  8102  7936  7948    1
  8103  7936  8257    1
  8104  7937  7938    1
  8105  7937  8258    1
  8106  7937  8259    1
  8107  7938  7939    1
  8108  7938  8260    1
  8109  7938  8261    1
  8110  7939  7947    1
  8111  7940  7941    1
  8112  7940  8262    1
  8113  7940  8263    1
  8114  7941  7942    1
  8115  7941  8264    1
  8116  7941  8265    1
  8117  7942  7943    1
  8118  7942  8266    1
  8119  7942  8267    1
  8120  7943  7944    1
  8121  7943  8268    1
  8122  7943  8269    1
  8123  7944  7945    1
  8124  7944  7946    2
  8125  7949  7950    1
  8126  7949  7953    2
  8127  7949  7954    1
  8128  7950  7951    2
  8129  7950  7952    1
  8130  7951  8270    1
  8131  7951  8271    1
  8132  7952  8272    1
  8133  7952  8273    1
  8134  7952  8274    1
  8135  7954  7955    1
  8136  7955  7956    1
  8137  7955  8275    1
  8138  7955  8276    1
  8139  7956  7957    1
  8140  7956  7968    1
  8141  7956  8277    1
  8142  7957  8278    1
  8143  7957  8279    1
  8144  7957  8280    1
  8145  7958  7959    1
  8146  7959  7960    1
  8147  7959  7963    1
  8148  7959  8281    1
  8149  7960  7961    1
  8150  7960  8282    1
  8151  7960  8283    1
  8152  7961  7962    1
  8153  7961  8284    1
  8154  7961  8285    1
  8155  7962  7970    2
  8156  7963  7964    1
  8157  7963  8286    1
  8158  7963  8287    1
  8159  7964  7965    1
  8160  7964  8288    1
  8161  7964  8289    1
  8162  7965  7966    1
  8163  7965  8290    1
  8164  7965  8291    1
  8165  7966  7967    1
  8166  7966  8292    1
  8167  7966  8293    1
  8168  7967  7968    1
  8169  7967  7969    2
  8170  7971  7972    1
  8171  7971  7982    1
  8172  7971  8294    1
  8173  7971  8295    1
  8174  7972  7973    1
  8175  7972  8296    1
  8176  7972  8297    1
  8177  7973  7974    1
  8178  7973  8298    1
  8179  7973  8299    1
  8180  7974  7975    1
  8181  7974  8300    1
  8182  7974  8301    1
  8183  7975  7976    1
  8184  7975  8302    1
  8185  7975  8303    1
  8186  7976  7977    1
  8187  7976  8304    1
  8188  7976  8305    1
  8189  7977  7978    1
  8190  7977  8306    1
  8191  7977  8307    1
  8192  7978  7979    1
  8193  7978  8308    1
  8194  7978  8309    1
  8195  7979  7980    1
  8196  7979  8310    1
  8197  7979  8311    1
  8198  7980  7981    1
  8199  7980  8312    1
  8200  7980  8313    1
  8201  7981  7985    1
  8202  7981  8314    1
  8203  7981  8315    1
  8204  7982  8316    1
  8205  7982  8317    1
  8206  7982  8318    1
  8207  7983  7984    1
  8208  7983  7987    1
  8209  7983  7988    1
  8210  7983  8319    1
  8211  7984  7985    1
  8212  7984  7986    2
  8213  7987  8320    1
  8214  7987  8321    1
  8215  7987  8322    1
  8216  7988  8323    1
  8217  7988  8324    1
  8218  7989  8325    1
  8219  7989  8326    1
  8220  7989  8327    1
  8221  7990  7992    2
  8222  7991  7992    1
  8223  7991  8328    1
  8224  7992  7993    1
  8225  7993  7994    1
  8226  7993  8329    1
  8227  7993  8330    1
  8228  7994  7995    1
  8229  7994  8331    1
  8230  7994  8332    1
  8231  7995  7996    1
  8232  7995  8333    1
  8233  7995  8334    1
  8234  7996  8021    1
  8235  7996  8335    1
  8236  7996  8336    1
  8237  7997  7998    1
  8238  7997  8053    1
  8239  7998  7999    1
  8240  7998  8337    1
  8241  7998  8338    1
  8242  7999  8021    1
  8243  7999  8339    1
  8244  7999  8340    1
  8245  8000  8001    1
  8246  8000  8004    2
  8247  8000  8005    1
  8248  8001  8002    1
  8249  8001  8003    1
  8250  8001  8084    1
  8251  8002  8083    1
  8252  8002  8341    1
  8253  8002  8342    1
  8254  8003  8343    1
  8255  8003  8344    1
  8256  8003  8345    1
  8257  8005  8006    1
  8258  8006  8007    1
  8259  8006  8346    1
  8260  8006  8347    1
  8261  8007  8008    1
  8262  8007  8018    1
  8263  8007  8348    1
  8264  8008  8349    1
  8265  8008  8350    1
  8266  8008  8351    1
  8267  8009  8010    1
  8268  8009  8013    1
  8269  8009  8065    1
  8270  8009  8352    1
  8271  8010  8011    1
  8272  8010  8353    1
  8273  8010  8354    1
  8274  8011  8012    1
  8275  8011  8355    1
  8276  8011  8356    1
  8277  8012  8043    1
  8278  8013  8014    1
  8279  8013  8357    1
  8280  8013  8358    1
  8281  8014  8015    1
  8282  8014  8359    1
  8283  8014  8360    1
  8284  8015  8016    1
  8285  8015  8361    1
  8286  8015  8362    1
  8287  8016  8017    1
  8288  8016  8363    1
  8289  8016  8364    1
  8290  8017  8018    1
  8291  8017  8019    2
  8292  8020  8021    1
  8293  8020  8022    1
  8294  8021  8365    1
  8295  8022  8366    1
  8296  8022  8367    1
  8297  8022  8368    1
  8298  8023  8024    1
  8299  8023  8027    2
  8300  8023  8028    1
  8301  8024  8025    2
  8302  8024  8026    1
  8303  8025  8369    1
  8304  8025  8370    1
  8305  8026  8371    1
  8306  8026  8372    1
  8307  8026  8373    1
  8308  8028  8029    1
  8309  8029  8030    1
  8310  8029  8374    1
  8311  8029  8375    1
  8312  8030  8031    1
  8313  8030  8041    1
  8314  8030  8376    1
  8315  8031  8377    1
  8316  8031  8378    1
  8317  8031  8379    1
  8318  8032  8033    1
  8319  8032  8036    1
  8320  8032  8043    1
  8321  8032  8380    1
  8322  8033  8034    1
  8323  8033  8381    1
  8324  8033  8382    1
  8325  8034  8035    1
  8326  8034  8383    1
  8327  8034  8384    1
  8328  8036  8037    1
  8329  8036  8385    1
  8330  8036  8386    1
  8331  8037  8038    1
  8332  8037  8387    1
  8333  8037  8388    1
  8334  8038  8039    1
  8335  8038  8389    1
  8336  8038  8390    1
  8337  8039  8040    1
  8338  8039  8391    1
  8339  8039  8392    1
  8340  8040  8041    1
  8341  8040  8042    2
  8342  8044  8045    1
  8343  8044  8048    2
  8344  8044  8049    1
  8345  8045  8046    2
  8346  8045  8047    1
  8347  8046  8393    1
  8348  8046  8394    1
  8349  8047  8395    1
  8350  8047  8396    1
  8351  8047  8397    1
  8352  8049  8050    1
  8353  8050  8051    1
  8354  8050  8398    1
  8355  8050  8399    1
  8356  8051  8052    1
  8357  8051  8063    1
  8358  8051  8400    1
  8359  8052  8401    1
  8360  8052  8402    1
  8361  8052  8403    1
  8362  8053  8054    1
  8363  8054  8055    1
  8364  8054  8058    1
  8365  8054  8404    1
  8366  8055  8056    1
  8367  8055  8405    1
  8368  8055  8406    1
  8369  8056  8057    1
  8370  8056  8407    1
  8371  8056  8408    1
  8372  8057  8065    1
  8373  8058  8059    1
  8374  8058  8409    1
  8375  8058  8410    1
  8376  8059  8060    1
  8377  8059  8411    1
  8378  8059  8412    1
  8379  8060  8061    1
  8380  8060  8413    1
  8381  8060  8414    1
  8382  8061  8062    1
  8383  8061  8415    1
  8384  8061  8416    1
  8385  8062  8063    1
  8386  8062  8064    2
  8387  8066  8067    1
  8388  8066  8077    1
  8389  8066  8417    1
  8390  8066  8418    1
  8391  8067  8068    1
  8392  8067  8419    1
  8393  8067  8420    1
  8394  8068  8069    1
  8395  8068  8421    1
  8396  8068  8422    1
  8397  8069  8070    1
  8398  8069  8423    1
  8399  8069  8424    1
  8400  8070  8071    1
  8401  8070  8425    1
  8402  8070  8426    1
  8403  8071  8072    1
  8404  8071  8427    1
  8405  8071  8428    1
  8406  8072  8073    1
  8407  8072  8429    1
  8408  8072  8430    1
  8409  8073  8074    1
  8410  8073  8431    1
  8411  8073  8432    1
  8412  8074  8075    1
  8413  8074  8433    1
  8414  8074  8434    1
  8415  8075  8076    1
  8416  8075  8435    1
  8417  8075  8436    1
  8418  8076  8080    1
  8419  8076  8437    1
  8420  8076  8438    1
  8421  8077  8439    1
  8422  8077  8440    1
  8423  8077  8441    1
  8424  8078  8079    1
  8425  8078  8082    1
  8426  8078  8083    1
  8427  8078  8442    1
  8428  8079  8080    1
  8429  8079  8081    2
  8430  8082  8443    1
  8431  8082  8444    1
  8432  8082  8445    1
  8433  8083  8446    1
  8434  8083  8447    1
  8435  8084  8448    1
  8436  8084  8449    1
  8437  8084  8450    1
  8438  8451  8453    2
  8439  8452  8453    1
  8440  8452  8735    1
  8441  8453  8454    1
  8442  8454  8455    1
  8443  8454  8736    1
  8444  8454  8737    1
  8445  8455  8456    1
  8446  8455  8738    1
  8447  8455  8739    1
  8448  8456  8457    1
  8449  8456  8740    1
  8450  8456  8741    1
  8451  8457  8481    1
  8452  8457  8742    1
  8453  8457  8743    1
  8454  8458  8459    1
  8455  8458  8513    2
  8456  8459  8460    1
  8457  8459  8744    1
  8458  8459  8745    1
  8459  8460  8481    1
  8460  8460  8746    1
  8461  8460  8747    1
  8462  8461  8462    1
  8463  8461  8465    2
  8464  8461  8466    1
  8465  8462  8463    1
  8466  8462  8464    1
  8467  8462  8544    1
  8468  8463  8543    1
  8469  8463  8748    1
  8470  8463  8749    1
  8471  8464  8750    1
  8472  8464  8751    1
  8473  8464  8752    1
  8474  8466  8467    1
  8475  8467  8468    1
  8476  8467  8753    1
  8477  8467  8754    1
  8478  8468  8469    1
  8479  8468  8479    1
  8480  8468  8755    1
  8481  8469  8756    1
  8482  8469  8757    1
  8483  8469  8758    1
  8484  8470  8471    1
  8485  8470  8474    1
  8486  8470  8525    1
  8487  8470  8759    1
  8488  8471  8472    1
  8489  8471  8760    1
  8490  8471  8761    1
  8491  8472  8473    1
  8492  8472  8762    1
  8493  8472  8763    1
  8494  8473  8503    1
  8495  8474  8475    1
  8496  8474  8764    1
  8497  8474  8765    1
  8498  8475  8476    1
  8499  8475  8766    1
  8500  8475  8767    1
  8501  8476  8477    1
  8502  8476  8768    1
  8503  8476  8769    1
  8504  8477  8478    1
  8505  8477  8770    1
  8506  8477  8771    1
  8507  8478  8479    1
  8508  8478  8480    2
  8509  8481  8597    1
  8510  8481  8772    1
  8511  8482  8483    1
  8512  8482  8486    2
  8513  8482  8487    1
  8514  8483  8484    2
  8515  8483  8485    1
  8516  8484  8773    1
  8517  8484  8774    1
  8518  8485  8775    1
  8519  8485  8776    1
  8520  8485  8777    1
  8521  8487  8488    1
  8522  8488  8489    1
  8523  8488  8778    1
  8524  8488  8779    1
  8525  8489  8490    1
  8526  8489  8500    1
  8527  8489  8780    1
  8528  8490  8781    1
  8529  8490  8782    1
  8530  8490  8783    1
  8531  8491  8492    1
  8532  8491  8495    1
  8533  8491  8503    1
  8534  8491  8784    1
  8535  8492  8493    1
  8536  8492  8785    1
  8537  8492  8786    1
  8538  8493  8494    1
  8539  8493  8787    1
  8540  8493  8788    1
  8541  8494  8502    1
  8542  8495  8496    1
  8543  8495  8789    1
  8544  8495  8790    1
  8545  8496  8497    1
  8546  8496  8791    1
  8547  8496  8792    1
  8548  8497  8498    1
  8549  8497  8793    1
  8550  8497  8794    1
  8551  8498  8499    1
  8552  8498  8795    1
  8553  8498  8796    1
  8554  8499  8500    1
  8555  8499  8501    2
  8556  8502  8797    1
  8557  8502  8798    1
  8558  8502  8799    1
  8559  8504  8505    1
  8560  8504  8508    2
  8561  8504  8509    1
  8562  8505  8506    2
  8563  8505  8507    1
  8564  8506  8800    1
  8565  8506  8801    1
  8566  8507  8802    1
  8567  8507  8803    1
  8568  8507  8804    1
  8569  8509  8510    1
  8570  8510  8511    1
  8571  8510  8805    1
  8572  8510  8806    1
  8573  8511  8512    1
  8574  8511  8523    1
  8575  8511  8807    1
  8576  8512  8808    1
  8577  8512  8809    1
  8578  8512  8810    1
  8579  8513  8514    1
  8580  8514  8515    1
  8581  8514  8518    1
  8582  8514  8811    1
  8583  8515  8516    1
  8584  8515  8812    1
  8585  8515  8813    1
  8586  8516  8517    1
  8587  8516  8814    1
  8588  8516  8815    1
  8589  8517  8525    1
  8590  8518  8519    1
  8591  8518  8816    1
  8592  8518  8817    1
  8593  8519  8520    1
  8594  8519  8818    1
  8595  8519  8819    1
  8596  8520  8521    1
  8597  8520  8820    1
  8598  8520  8821    1
  8599  8521  8522    1
  8600  8521  8822    1
  8601  8521  8823    1
  8602  8522  8523    1
  8603  8522  8524    2
  8604  8526  8527    1
  8605  8526  8537    1
  8606  8526  8824    1
  8607  8526  8825    1
  8608  8527  8528    1
  8609  8527  8826    1
  8610  8527  8827    1
  8611  8528  8529    1
  8612  8528  8828    1
  8613  8528  8829    1
  8614  8529  8530    1
  8615  8529  8830    1
  8616  8529  8831    1
  8617  8530  8531    1
  8618  8530  8832    1
  8619  8530  8833    1
  8620  8531  8532    1
  8621  8531  8834    1
  8622  8531  8835    1
  8623  8532  8533    1
  8624  8532  8836    1
  8625  8532  8837    1
  8626  8533  8534    1
  8627  8533  8838    1
  8628  8533  8839    1
  8629  8534  8535    1
  8630  8534  8840    1
  8631  8534  8841    1
  8632  8535  8536    1
  8633  8535  8842    1
  8634  8535  8843    1
  8635  8536  8540    1
  8636  8536  8844    1
  8637  8536  8845    1
  8638  8537  8846    1
  8639  8537  8847    1
  8640  8537  8848    1
  8641  8538  8539    1
  8642  8538  8542    1
  8643  8538  8543    1
  8644  8538  8849    1
  8645  8539  8540    1
  8646  8539  8541    2
  8647  8542  8850    1
  8648  8542  8851    1
  8649  8542  8852    1
  8650  8543  8853    1
  8651  8543  8854    1
  8652  8544  8855    1
  8653  8544  8856    1
  8654  8544  8857    1
  8655  8545  8547    2
  8656  8546  8547    1
  8657  8546  8858    1
  8658  8547  8548    1
  8659  8548  8549    1
  8660  8548  8859    1
  8661  8548  8860    1
  8662  8549  8550    1
  8663  8549  8861    1
  8664  8549  8862    1
  8665  8550  8551    1
  8666  8550  8863    1
  8667  8550  8864    1
  8668  8551  8576    1
  8669  8551  8865    1
  8670  8551  8866    1
  8671  8552  8553    1
  8672  8552  8608    1
  8673  8553  8554    1
  8674  8553  8867    1
  8675  8553  8868    1
  8676  8554  8576    1
  8677  8554  8869    1
  8678  8554  8870    1
  8679  8555  8556    1
  8680  8555  8559    2
  8681  8555  8560    1
  8682  8556  8557    1
  8683  8556  8558    1
  8684  8556  8639    1
  8685  8557  8638    1
  8686  8557  8871    1
  8687  8557  8872    1
  8688  8558  8873    1
  8689  8558  8874    1
  8690  8558  8875    1
  8691  8560  8561    1
  8692  8561  8562    1
  8693  8561  8876    1
  8694  8561  8877    1
  8695  8562  8563    1
  8696  8562  8573    1
  8697  8562  8878    1
  8698  8563  8879    1
  8699  8563  8880    1
  8700  8563  8881    1
  8701  8564  8565    1
  8702  8564  8568    1
  8703  8564  8620    1
  8704  8564  8882    1
  8705  8565  8566    1
  8706  8565  8883    1
  8707  8565  8884    1
  8708  8566  8567    1
  8709  8566  8885    1
  8710  8566  8886    1
  8711  8567  8598    1
  8712  8568  8569    1
  8713  8568  8887    1
  8714  8568  8888    1
  8715  8569  8570    1
  8716  8569  8889    1
  8717  8569  8890    1
  8718  8570  8571    1
  8719  8570  8891    1
  8720  8570  8892    1
  8721  8571  8572    1
  8722  8571  8893    1
  8723  8571  8894    1
  8724  8572  8573    1
  8725  8572  8574    2
  8726  8575  8576    1
  8727  8575  8685    1
  8728  8576  8895    1
  8729  8577  8578    1
  8730  8577  8581    2
  8731  8577  8582    1
  8732  8578  8579    2
  8733  8578  8580    1
  8734  8579  8896    1
  8735  8579  8897    1
  8736  8580  8898    1
  8737  8580  8899    1
  8738  8580  8900    1
  8739  8582  8583    1
  8740  8583  8584    1
  8741  8583  8901    1
  8742  8583  8902    1
  8743  8584  8585    1
  8744  8584  8595    1
  8745  8584  8903    1
  8746  8585  8904    1
  8747  8585  8905    1
  8748  8585  8906    1
  8749  8586  8587    1
  8750  8586  8590    1
  8751  8586  8598    1
  8752  8586  8907    1
  8753  8587  8588    1
  8754  8587  8908    1
  8755  8587  8909    1
  8756  8588  8589    1
  8757  8588  8910    1
  8758  8588  8911    1
  8759  8589  8597    1
  8760  8590  8591    1
  8761  8590  8912    1
  8762  8590  8913    1
  8763  8591  8592    1
  8764  8591  8914    1
  8765  8591  8915    1
  8766  8592  8593    1
  8767  8592  8916    1
  8768  8592  8917    1
  8769  8593  8594    1
  8770  8593  8918    1
  8771  8593  8919    1
  8772  8594  8595    1
  8773  8594  8596    2
  8774  8599  8600    1
  8775  8599  8603    2
  8776  8599  8604    1
  8777  8600  8601    2
  8778  8600  8602    1
  8779  8601  8920    1
  8780  8601  8921    1
  8781  8602  8922    1
  8782  8602  8923    1
  8783  8602  8924    1
  8784  8604  8605    1
  8785  8605  8606    1
  8786  8605  8925    1
  8787  8605  8926    1
  8788  8606  8607    1
  8789  8606  8618    1
  8790  8606  8927    1
  8791  8607  8928    1
  8792  8607  8929    1
  8793  8607  8930    1
  8794  8608  8609    1
  8795  8609  8610    1
  8796  8609  8613    1
  8797  8609  8931    1
  8798  8610  8611    1
  8799  8610  8932    1
  8800  8610  8933    1
  8801  8611  8612    1
  8802  8611  8934    1
  8803  8611  8935    1
  8804  8612  8620    2
  8805  8613  8614    1
  8806  8613  8936    1
  8807  8613  8937    1
  8808  8614  8615    1
  8809  8614  8938    1
  8810  8614  8939    1
  8811  8615  8616    1
  8812  8615  8940    1
  8813  8615  8941    1
  8814  8616  8617    1
  8815  8616  8942    1
  8816  8616  8943    1
  8817  8617  8618    1
  8818  8617  8619    2
  8819  8621  8622    1
  8820  8621  8632    1
  8821  8621  8944    1
  8822  8621  8945    1
  8823  8622  8623    1
  8824  8622  8946    1
  8825  8622  8947    1
  8826  8623  8624    1
  8827  8623  8948    1
  8828  8623  8949    1
  8829  8624  8625    1
  8830  8624  8950    1
  8831  8624  8951    1
  8832  8625  8626    1
  8833  8625  8952    1
  8834  8625  8953    1
  8835  8626  8627    1
  8836  8626  8954    1
  8837  8626  8955    1
  8838  8627  8628    1
  8839  8627  8956    1
  8840  8627  8957    1
  8841  8628  8629    1
  8842  8628  8958    1
  8843  8628  8959    1
  8844  8629  8630    1
  8845  8629  8960    1
  8846  8629  8961    1
  8847  8630  8631    1
  8848  8630  8962    1
  8849  8630  8963    1
  8850  8631  8635    1
  8851  8631  8964    1
  8852  8631  8965    1
  8853  8632  8966    1
  8854  8632  8967    1
  8855  8632  8968    1
  8856  8633  8634    1
  8857  8633  8637    1
  8858  8633  8638    1
  8859  8633  8969    1
  8860  8634  8635    1
  8861  8634  8636    2
  8862  8637  8970    1
  8863  8637  8971    1
  8864  8637  8972    1
  8865  8638  8973    1
  8866  8638  8974    1
  8867  8639  8975    1
  8868  8639  8976    1
  8869  8639  8977    1
  8870  8640  8642    2
  8871  8641  8642    1
  8872  8641  8978    1
  8873  8642  8643    1
  8874  8643  8644    1
  8875  8643  8979    1
  8876  8643  8980    1
  8877  8644  8645    1
  8878  8644  8981    1
  8879  8644  8982    1
  8880  8645  8646    1
  8881  8645  8983    1
  8882  8645  8984    1
  8883  8646  8671    1
  8884  8646  8985    1
  8885  8646  8986    1
  8886  8647  8648    1
  8887  8647  8703    1
  8888  8648  8649    1
  8889  8648  8987    1
  8890  8648  8988    1
  8891  8649  8671    1
  8892  8649  8989    1
  8893  8649  8990    1
  8894  8650  8651    1
  8895  8650  8654    2
  8896  8650  8655    1
  8897  8651  8652    1
  8898  8651  8653    1
  8899  8651  8734    1
  8900  8652  8733    1
  8901  8652  8991    1
  8902  8652  8992    1
  8903  8653  8993    1
  8904  8653  8994    1
  8905  8653  8995    1
  8906  8655  8656    1
  8907  8656  8657    1
  8908  8656  8996    1
  8909  8656  8997    1
  8910  8657  8658    1
  8911  8657  8668    1
  8912  8657  8998    1
  8913  8658  8999    1
  8914  8658  9000    1
  8915  8658  9001    1
  8916  8659  8660    1
  8917  8659  8663    1
  8918  8659  8715    1
  8919  8659  9002    1
  8920  8660  8661    1
  8921  8660  9003    1
  8922  8660  9004    1
  8923  8661  8662    1
  8924  8661  9005    1
  8925  8661  9006    1
  8926  8662  8693    1
  8927  8663  8664    1
  8928  8663  9007    1
  8929  8663  9008    1
  8930  8664  8665    1
  8931  8664  9009    1
  8932  8664  9010    1
  8933  8665  8666    1
  8934  8665  9011    1
  8935  8665  9012    1
  8936  8666  8667    1
  8937  8666  9013    1
  8938  8666  9014    1
  8939  8667  8668    1
  8940  8667  8669    2
  8941  8670  8671    1
  8942  8670  8672    1
  8943  8671  9015    1
  8944  8672  9016    1
  8945  8672  9017    1
  8946  8672  9018    1
  8947  8673  8674    1
  8948  8673  8677    2
  8949  8673  8678    1
  8950  8674  8675    2
  8951  8674  8676    1
  8952  8675  9019    1
  8953  8675  9020    1
  8954  8676  9021    1
  8955  8676  9022    1
  8956  8676  9023    1
  8957  8678  8679    1
  8958  8679  8680    1
  8959  8679  9024    1
  8960  8679  9025    1
  8961  8680  8681    1
  8962  8680  8691    1
  8963  8680  9026    1
  8964  8681  9027    1
  8965  8681  9028    1
  8966  8681  9029    1
  8967  8682  8683    1
  8968  8682  8686    1
  8969  8682  8693    1
  8970  8682  9030    1
  8971  8683  8684    1
  8972  8683  9031    1
  8973  8683  9032    1
  8974  8684  8685    1
  8975  8684  9033    1
  8976  8684  9034    1
  8977  8686  8687    1
  8978  8686  9035    1
  8979  8686  9036    1
  8980  8687  8688    1
  8981  8687  9037    1
  8982  8687  9038    1
  8983  8688  8689    1
  8984  8688  9039    1
  8985  8688  9040    1
  8986  8689  8690    1
  8987  8689  9041    1
  8988  8689  9042    1
  8989  8690  8691    1
  8990  8690  8692    2
  8991  8694  8695    1
  8992  8694  8698    2
  8993  8694  8699    1
  8994  8695  8696    2
  8995  8695  8697    1
  8996  8696  9043    1
  8997  8696  9044    1
  8998  8697  9045    1
  8999  8697  9046    1
  9000  8697  9047    1
  9001  8699  8700    1
  9002  8700  8701    1
  9003  8700  9048    1
  9004  8700  9049    1
  9005  8701  8702    1
  9006  8701  8713    1
  9007  8701  9050    1
  9008  8702  9051    1
  9009  8702  9052    1
  9010  8702  9053    1
  9011  8703  8704    1
  9012  8704  8705    1
  9013  8704  8708    1
  9014  8704  9054    1
  9015  8705  8706    1
  9016  8705  9055    1
  9017  8705  9056    1
  9018  8706  8707    1
  9019  8706  9057    1
  9020  8706  9058    1
  9021  8707  8715    1
  9022  8708  8709    1
  9023  8708  9059    1
  9024  8708  9060    1
  9025  8709  8710    1
  9026  8709  9061    1
  9027  8709  9062    1
  9028  8710  8711    1
  9029  8710  9063    1
  9030  8710  9064    1
  9031  8711  8712    1
  9032  8711  9065    1
  9033  8711  9066    1
  9034  8712  8713    1
  9035  8712  8714    2
  9036  8716  8717    1
  9037  8716  8727    1
  9038  8716  9067    1
  9039  8716  9068    1
  9040  8717  8718    1
  9041  8717  9069    1
  9042  8717  9070    1
  9043  8718  8719    1
  9044  8718  9071    1
  9045  8718  9072    1
  9046  8719  8720    1
  9047  8719  9073    1
  9048  8719  9074    1
  9049  8720  8721    1
  9050  8720  9075    1
  9051  8720  9076    1
  9052  8721  8722    1
  9053  8721  9077    1
  9054  8721  9078    1
  9055  8722  8723    1
  9056  8722  9079    1
  9057  8722  9080    1
  9058  8723  8724    1
  9059  8723  9081    1
  9060  8723  9082    1
  9061  8724  8725    1
  9062  8724  9083    1
  9063  8724  9084    1
  9064  8725  8726    1
  9065  8725  9085    1
  9066  8725  9086    1
  9067  8726  8730    1
  9068  8726  9087    1
  9069  8726  9088    1
  9070  8727  9089    1
  9071  8727  9090    1
  9072  8727  9091    1
  9073  8728  8729    1
  9074  8728  8732    1
  9075  8728  8733    1
  9076  8728  9092    1
  9077  8729  8730    1
  9078  8729  8731    2
  9079  8732  9093    1
  9080  8732  9094    1
  9081  8732  9095    1
  9082  8733  9096    1
  9083  8733  9097    1
  9084  8734  9098    1
  9085  8734  9099    1
  9086  8734  9100    1
  9087  9101  9103    2
  9088  9102  9103    1
  9089  9102  9385    1
  9090  9103  9104    1
  9091  9104  9105    1
  9092  9104  9386    1
  9093  9104  9387    1
  9094  9105  9106    1
  9095  9105  9388    1
  9096  9105  9389    1
  9097  9106  9107    1
  9098  9106  9390    1
  9099  9106  9391    1
  9100  9107  9131    1
  9101  9107  9392    1
  9102  9107  9393    1
  9103  9108  9109    1
  9104  9108  9163    2
  9105  9109  9110    1
  9106  9109  9394    1
  9107  9109  9395    1
  9108  9110  9131    1
  9109  9110  9396    1
  9110  9110  9397    1
  9111  9111  9112    1
  9112  9111  9115    2
  9113  9111  9116    1
  9114  9112  9113    1
  9115  9112  9114    1
  9116  9112  9194    1
  9117  9113  9193    1
  9118  9113  9398    1
  9119  9113  9399    1
  9120  9114  9400    1
  9121  9114  9401    1
  9122  9114  9402    1
  9123  9116  9117    1
  9124  9117  9118    1
  9125  9117  9403    1
  9126  9117  9404    1
  9127  9118  9119    1
  9128  9118  9129    1
  9129  9118  9405    1
  9130  9119  9406    1
  9131  9119  9407    1
  9132  9119  9408    1
  9133  9120  9121    1
  9134  9120  9124    1
  9135  9120  9175    1
  9136  9120  9409    1
  9137  9121  9122    1
  9138  9121  9410    1
  9139  9121  9411    1
  9140  9122  9123    1
  9141  9122  9412    1
  9142  9122  9413    1
  9143  9123  9153    1
  9144  9124  9125    1
  9145  9124  9414    1
  9146  9124  9415    1
  9147  9125  9126    1
  9148  9125  9416    1
  9149  9125  9417    1
  9150  9126  9127    1
  9151  9126  9418    1
  9152  9126  9419    1
  9153  9127  9128    1
  9154  9127  9420    1
  9155  9127  9421    1
  9156  9128  9129    1
  9157  9128  9130    2
  9158  9131  9247    1
  9159  9131  9422    1
  9160  9132  9133    1
  9161  9132  9136    2
  9162  9132  9137    1
  9163  9133  9134    2
  9164  9133  9135    1
  9165  9134  9423    1
  9166  9134  9424    1
  9167  9135  9425    1
  9168  9135  9426    1
  9169  9135  9427    1
  9170  9137  9138    1
  9171  9138  9139    1
  9172  9138  9428    1
  9173  9138  9429    1
  9174  9139  9140    1
  9175  9139  9150    1
  9176  9139  9430    1
  9177  9140  9431    1
  9178  9140  9432    1
  9179  9140  9433    1
  9180  9141  9142    1
  9181  9141  9145    1
  9182  9141  9153    1
  9183  9141  9434    1
  9184  9142  9143    1
  9185  9142  9435    1
  9186  9142  9436    1
  9187  9143  9144    1
  9188  9143  9437    1
  9189  9143  9438    1
  9190  9144  9152    1
  9191  9145  9146    1
  9192  9145  9439    1
  9193  9145  9440    1
  9194  9146  9147    1
  9195  9146  9441    1
  9196  9146  9442    1
  9197  9147  9148    1
  9198  9147  9443    1
  9199  9147  9444    1
  9200  9148  9149    1
  9201  9148  9445    1
  9202  9148  9446    1
  9203  9149  9150    1
  9204  9149  9151    2
  9205  9152  9447    1
  9206  9152  9448    1
  9207  9152  9449    1
  9208  9154  9155    1
  9209  9154  9158    2
  9210  9154  9159    1
  9211  9155  9156    2
  9212  9155  9157    1
  9213  9156  9450    1
  9214  9156  9451    1
  9215  9157  9452    1
  9216  9157  9453    1
  9217  9157  9454    1
  9218  9159  9160    1
  9219  9160  9161    1
  9220  9160  9455    1
  9221  9160  9456    1
  9222  9161  9162    1
  9223  9161  9173    1
  9224  9161  9457    1
  9225  9162  9458    1
  9226  9162  9459    1
  9227  9162  9460    1
  9228  9163  9164    1
  9229  9164  9165    1
  9230  9164  9168    1
  9231  9164  9461    1
  9232  9165  9166    1
  9233  9165  9462    1
  9234  9165  9463    1
  9235  9166  9167    1
  9236  9166  9464    1
  9237  9166  9465    1
  9238  9167  9175    1
  9239  9168  9169    1
  9240  9168  9466    1
  9241  9168  9467    1
  9242  9169  9170    1
  9243  9169  9468    1
  9244  9169  9469    1
  9245  9170  9171    1
  9246  9170  9470    1
  9247  9170  9471    1
  9248  9171  9172    1
  9249  9171  9472    1
  9250  9171  9473    1
  9251  9172  9173    1
  9252  9172  9174    2
  9253  9176  9177    1
  9254  9176  9187    1
  9255  9176  9474    1
  9256  9176  9475    1
  9257  9177  9178    1
  9258  9177  9476    1
  9259  9177  9477    1
  9260  9178  9179    1
  9261  9178  9478    1
  9262  9178  9479    1
  9263  9179  9180    1
  9264  9179  9480    1
  9265  9179  9481    1
  9266  9180  9181    1
  9267  9180  9482    1
  9268  9180  9483    1
  9269  9181  9182    1
  9270  9181  9484    1
  9271  9181  9485    1
  9272  9182  9183    1
  9273  9182  9486    1
  9274  9182  9487    1
  9275  9183  9184    1
  9276  9183  9488    1
  9277  9183  9489    1
  9278  9184  9185    1
  9279  9184  9490    1
  9280  9184  9491    1
  9281  9185  9186    1
  9282  9185  9492    1
  9283  9185  9493    1
  9284  9186  9190    1
  9285  9186  9494    1
  9286  9186  9495    1
  9287  9187  9496    1
  9288  9187  9497    1
  9289  9187  9498    1
  9290  9188  9189    1
  9291  9188  9192    1
  9292  9188  9193    1
  9293  9188  9499    1
  9294  9189  9190    1
  9295  9189  9191    2
  9296  9192  9500    1
  9297  9192  9501    1
  9298  9192  9502    1
  9299  9193  9503    1
  9300  9193  9504    1
  9301  9194  9505    1
  9302  9194  9506    1
  9303  9194  9507    1
  9304  9195  9197    2
  9305  9196  9197    1
  9306  9196  9508    1
  9307  9197  9198    1
  9308  9198  9199    1
  9309  9198  9509    1
  9310  9198  9510    1
  9311  9199  9200    1
  9312  9199  9511    1
  9313  9199  9512    1
  9314  9200  9201    1
  9315  9200  9513    1
  9316  9200  9514    1
  9317  9201  9226    1
  9318  9201  9515    1
  9319  9201  9516    1
  9320  9202  9203    1
  9321  9202  9258    1
  9322  9203  9204    1
  9323  9203  9517    1
  9324  9203  9518    1
  9325  9204  9226    1
  9326  9204  9519    1
  9327  9204  9520    1
  9328  9205  9206    1
  9329  9205  9209    2
  9330  9205  9210    1
  9331  9206  9207    1
  9332  9206  9208    1
  9333  9206  9289    1
  9334  9207  9288    1
  9335  9207  9521    1
  9336  9207  9522    1
  9337  9208  9523    1
  9338  9208  9524    1
  9339  9208  9525    1
  9340  9210  9211    1
  9341  9211  9212    1
  9342  9211  9526    1
  9343  9211  9527    1
  9344  9212  9213    1
  9345  9212  9223    1
  9346  9212  9528    1
  9347  9213  9529    1
  9348  9213  9530    1
  9349  9213  9531    1
  9350  9214  9215    1
  9351  9214  9218    1
  9352  9214  9270    1
  9353  9214  9532    1
  9354  9215  9216    1
  9355  9215  9533    1
  9356  9215  9534    1
  9357  9216  9217    1
  9358  9216  9535    1
  9359  9216  9536    1
  9360  9217  9248    1
  9361  9218  9219    1
  9362  9218  9537    1
  9363  9218  9538    1
  9364  9219  9220    1
  9365  9219  9539    1
  9366  9219  9540    1
  9367  9220  9221    1
  9368  9220  9541    1
  9369  9220  9542    1
  9370  9221  9222    1
  9371  9221  9543    1
  9372  9221  9544    1
  9373  9222  9223    1
  9374  9222  9224    2
  9375  9225  9226    1
  9376  9225  9335    1
  9377  9226  9545    1
  9378  9227  9228    1
  9379  9227  9231    2
  9380  9227  9232    1
  9381  9228  9229    2
  9382  9228  9230    1
  9383  9229  9546    1
  9384  9229  9547    1
  9385  9230  9548    1
  9386  9230  9549    1
  9387  9230  9550    1
  9388  9232  9233    1
  9389  9233  9234    1
  9390  9233  9551    1
  9391  9233  9552    1
  9392  9234  9235    1
  9393  9234  9245    1
  9394  9234  9553    1
  9395  9235  9554    1
  9396  9235  9555    1
  9397  9235  9556    1
  9398  9236  9237    1
  9399  9236  9240    1
  9400  9236  9248    1
  9401  9236  9557    1
  9402  9237  9238    1
  9403  9237  9558    1
  9404  9237  9559    1
  9405  9238  9239    1
  9406  9238  9560    1
  9407  9238  9561    1
  9408  9239  9247    1
  9409  9240  9241    1
  9410  9240  9562    1
  9411  9240  9563    1
  9412  9241  9242    1
  9413  9241  9564    1
  9414  9241  9565    1
  9415  9242  9243    1
  9416  9242  9566    1
  9417  9242  9567    1
  9418  9243  9244    1
  9419  9243  9568    1
  9420  9243  9569    1
  9421  9244  9245    1
  9422  9244  9246    2
  9423  9249  9250    1
  9424  9249  9253    2
  9425  9249  9254    1
  9426  9250  9251    2
  9427  9250  9252    1
  9428  9251  9570    1
  9429  9251  9571    1
  9430  9252  9572    1
  9431  9252  9573    1
  9432  9252  9574    1
  9433  9254  9255    1
  9434  9255  9256    1
  9435  9255  9575    1
  9436  9255  9576    1
  9437  9256  9257    1
  9438  9256  9268    1
  9439  9256  9577    1
  9440  9257  9578    1
  9441  9257  9579    1
  9442  9257  9580    1
  9443  9258  9259    1
  9444  9259  9260    1
  9445  9259  9263    1
  9446  9259  9581    1
  9447  9260  9261    1
  9448  9260  9582    1
  9449  9260  9583    1
  9450  9261  9262    1
  9451  9261  9584    1
  9452  9261  9585    1
  9453  9262  9270    2
  9454  9263  9264    1
  9455  9263  9586    1
  9456  9263  9587    1
  9457  9264  9265    1
  9458  9264  9588    1
  9459  9264  9589    1
  9460  9265  9266    1
  9461  9265  9590    1
  9462  9265  9591    1
  9463  9266  9267    1
  9464  9266  9592    1
  9465  9266  9593    1
  9466  9267  9268    1
  9467  9267  9269    2
  9468  9271  9272    1
  9469  9271  9282    1
  9470  9271  9594    1
  9471  9271  9595    1
  9472  9272  9273    1
  9473  9272  9596    1
  9474  9272  9597    1
  9475  9273  9274    1
  9476  9273  9598    1
  9477  9273  9599    1
  9478  9274  9275    1
  9479  9274  9600    1
  9480  9274  9601    1
  9481  9275  9276    1
  9482  9275  9602    1
  9483  9275  9603    1
  9484  9276  9277    1
  9485  9276  9604    1
  9486  9276  9605    1
  9487  9277  9278    1
  9488  9277  9606    1
  9489  9277  9607    1
  9490  9278  9279    1
  9491  9278  9608    1
  9492  9278  9609    1
  9493  9279  9280    1
  9494  9279  9610    1
  9495  9279  9611    1
  9496  9280  9281    1
  9497  9280  9612    1
  9498  9280  9613    1
  9499  9281  9285    1
  9500  9281  9614    1
  9501  9281  9615    1
  9502  9282  9616    1
  9503  9282  9617    1
  9504  9282  9618    1
  9505  9283  9284    1
  9506  9283  9287    1
  9507  9283  9288    1
  9508  9283  9619    1
  9509  9284  9285    1
  9510  9284  9286    2
  9511  9287  9620    1
  9512  9287  9621    1
  9513  9287  9622    1
  9514  9288  9623    1
  9515  9288  9624    1
  9516  9289  9625    1
  9517  9289  9626    1
  9518  9289  9627    1
  9519  9290  9292    2
  9520  9291  9292    1
  9521  9291  9628    1
  9522  9292  9293    1
  9523  9293  9294    1
  9524  9293  9629    1
  9525  9293  9630    1
  9526  9294  9295    1
  9527  9294  9631    1
  9528  9294  9632    1
  9529  9295  9296    1
  9530  9295  9633    1
  9531  9295  9634    1
  9532  9296  9321    1
  9533  9296  9635    1
  9534  9296  9636    1
  9535  9297  9298    1
  9536  9297  9353    1
  9537  9298  9299    1
  9538  9298  9637    1
  9539  9298  9638    1
  9540  9299  9321    1
  9541  9299  9639    1
  9542  9299  9640    1
  9543  9300  9301    1
  9544  9300  9304    2
  9545  9300  9305    1
  9546  9301  9302    1
  9547  9301  9303    1
  9548  9301  9384    1
  9549  9302  9383    1
  9550  9302  9641    1
  9551  9302  9642    1
  9552  9303  9643    1
  9553  9303  9644    1
  9554  9303  9645    1
  9555  9305  9306    1
  9556  9306  9307    1
  9557  9306  9646    1
  9558  9306  9647    1
  9559  9307  9308    1
  9560  9307  9318    1
  9561  9307  9648    1
  9562  9308  9649    1
  9563  9308  9650    1
  9564  9308  9651    1
  9565  9309  9310    1
  9566  9309  9313    1
  9567  9309  9365    1
  9568  9309  9652    1
  9569  9310  9311    1
  9570  9310  9653    1
  9571  9310  9654    1
  9572  9311  9312    1
  9573  9311  9655    1
  9574  9311  9656    1
  9575  9312  9343    1
  9576  9313  9314    1
  9577  9313  9657    1
  9578  9313  9658    1
  9579  9314  9315    1
  9580  9314  9659    1
  9581  9314  9660    1
  9582  9315  9316    1
  9583  9315  9661    1
  9584  9315  9662    1
  9585  9316  9317    1
  9586  9316  9663    1
  9587  9316  9664    1
  9588  9317  9318    1
  9589  9317  9319    2
  9590  9320  9321    1
  9591  9320  9322    1
  9592  9321  9665    1
  9593  9322  9666    1
  9594  9322  9667    1
  9595  9322  9668    1
  9596  9323  9324    1
  9597  9323  9327    2
  9598  9323  9328    1
  9599  9324  9325    2
  9600  9324  9326    1
  9601  9325  9669    1
  9602  9325  9670    1
  9603  9326  9671    1
  9604  9326  9672    1
  9605  9326  9673    1
  9606  9328  9329    1
  9607  9329  9330    1
  9608  9329  9674    1
  9609  9329  9675    1
  9610  9330  9331    1
  9611  9330  9341    1
  9612  9330  9676    1
  9613  9331  9677    1
  9614  9331  9678    1
  9615  9331  9679    1
  9616  9332  9333    1
  9617  9332  9336    1
  9618  9332  9343    1
  9619  9332  9680    1
  9620  9333  9334    1
  9621  9333  9681    1
  9622  9333  9682    1
  9623  9334  9335    1
  9624  9334  9683    1
  9625  9334  9684    1
  9626  9336  9337    1
  9627  9336  9685    1
  9628  9336  9686    1
  9629  9337  9338    1
  9630  9337  9687    1
  9631  9337  9688    1
  9632  9338  9339    1
  9633  9338  9689    1
  9634  9338  9690    1
  9635  9339  9340    1
  9636  9339  9691    1
  9637  9339  9692    1
  9638  9340  9341    1
  9639  9340  9342    2
  9640  9344  9345    1
  9641  9344  9348    2
  9642  9344  9349    1
  9643  9345  9346    2
  9644  9345  9347    1
  9645  9346  9693    1
  9646  9346  9694    1
  9647  9347  9695    1
  9648  9347  9696    1
  9649  9347  9697    1
  9650  9349  9350    1
  9651  9350  9351    1
  9652  9350  9698    1
  9653  9350  9699    1
  9654  9351  9352    1
  9655  9351  9363    1
  9656  9351  9700    1
  9657  9352  9701    1
  9658  9352  9702    1
  9659  9352  9703    1
  9660  9353  9354    1
  9661  9354  9355    1
  9662  9354  9358    1
  9663  9354  9704    1
  9664  9355  9356    1
  9665  9355  9705    1
  9666  9355  9706    1
  9667  9356  9357    1
  9668  9356  9707    1
  9669  9356  9708    1
  9670  9357  9365    1
  9671  9358  9359    1
  9672  9358  9709    1
  9673  9358  9710    1
  9674  9359  9360    1
  9675  9359  9711    1
  9676  9359  9712    1
  9677  9360  9361    1
  9678  9360  9713    1
  9679  9360  9714    1
  9680  9361  9362    1
  9681  9361  9715    1
  9682  9361  9716    1
  9683  9362  9363    1
  9684  9362  9364    2
  9685  9366  9367    1
  9686  9366  9377    1
  9687  9366  9717    1
  9688  9366  9718    1
  9689  9367  9368    1
  9690  9367  9719    1
  9691  9367  9720    1
  9692  9368  9369    1
  9693  9368  9721    1
  9694  9368  9722    1
  9695  9369  9370    1
  9696  9369  9723    1
  9697  9369  9724    1
  9698  9370  9371    1
  9699  9370  9725    1
  9700  9370  9726    1
  9701  9371  9372    1
  9702  9371  9727    1
  9703  9371  9728    1
  9704  9372  9373    1
  9705  9372  9729    1
  9706  9372  9730    1
  9707  9373  9374    1
  9708  9373  9731    1
  9709  9373  9732    1
  9710  9374  9375    1
  9711  9374  9733    1
  9712  9374  9734    1
  9713  9375  9376    1
  9714  9375  9735    1
  9715  9375  9736    1
  9716  9376  9380    1
  9717  9376  9737    1
  9718  9376  9738    1
  9719  9377  9739    1
  9720  9377  9740    1
  9721  9377  9741    1
  9722  9378  9379    1
  9723  9378  9382    1
  9724  9378  9383    1
  9725  9378  9742    1
  9726  9379  9380    1
  9727  9379  9381    2
  9728  9382  9743    1
  9729  9382  9744    1
  9730  9382  9745    1
  9731  9383  9746    1
  9732  9383  9747    1
  9733  9384  9748    1
  9734  9384  9749    1
  9735  9384  9750    1
  9736  9751  9753    2
  9737  9752  9753    1
  9738  9752 10035    1
  9739  9753  9754    1
  9740  9754  9755    1
  9741  9754 10036    1
  9742  9754 10037    1
  9743  9755  9756    1
  9744  9755 10038    1
  9745  9755 10039    1
  9746  9756  9757    1
  9747  9756 10040    1
  9748  9756 10041    1
  9749  9757  9781    1
  9750  9757 10042    1
  9751  9757 10043    1
  9752  9758  9759    1
  9753  9758  9813    2
  9754  9759  9760    1
  9755  9759 10044    1
  9756  9759 10045    1
  9757  9760  9781    1
  9758  9760 10046    1
  9759  9760 10047    1
  9760  9761  9762    1
  9761  9761  9765    2
  9762  9761  9766    1
  9763  9762  9763    1
  9764  9762  9764    1
  9765  9762  9844    1
  9766  9763  9843    1
  9767  9763 10048    1
  9768  9763 10049    1
  9769  9764 10050    1
  9770  9764 10051    1
  9771  9764 10052    1
  9772  9766  9767    1
  9773  9767  9768    1
  9774  9767 10053    1
  9775  9767 10054    1
  9776  9768  9769    1
  9777  9768  9779    1
  9778  9768 10055    1
  9779  9769 10056    1
  9780  9769 10057    1
  9781  9769 10058    1
  9782  9770  9771    1
  9783  9770  9774    1
  9784  9770  9825    1
  9785  9770 10059    1
  9786  9771  9772    1
  9787  9771 10060    1
  9788  9771 10061    1
  9789  9772  9773    1
  9790  9772 10062    1
  9791  9772 10063    1
  9792  9773  9803    1
  9793  9774  9775    1
  9794  9774 10064    1
  9795  9774 10065    1
  9796  9775  9776    1
  9797  9775 10066    1
  9798  9775 10067    1
  9799  9776  9777    1
  9800  9776 10068    1
  9801  9776 10069    1
  9802  9777  9778    1
  9803  9777 10070    1
  9804  9777 10071    1
  9805  9778  9779    1
  9806  9778  9780    2
  9807  9781  9897    1
  9808  9781 10072    1
  9809  9782  9783    1
  9810  9782  9786    2
  9811  9782  9787    1
  9812  9783  9784    2
  9813  9783  9785    1
  9814  9784 10073    1
  9815  9784 10074    1
  9816  9785 10075    1
  9817  9785 10076    1
  9818  9785 10077    1
  9819  9787  9788    1
  9820  9788  9789    1
  9821  9788 10078    1
  9822  9788 10079    1
  9823  9789  9790    1
  9824  9789  9800    1
  9825  9789 10080    1
  9826  9790 10081    1
  9827  9790 10082    1
  9828  9790 10083    1
  9829  9791  9792    1
  9830  9791  9795    1
  9831  9791  9803    1
  9832  9791 10084    1
  9833  9792  9793    1
  9834  9792 10085    1
  9835  9792 10086    1
  9836  9793  9794    1
  9837  9793 10087    1
  9838  9793 10088    1
  9839  9794  9802    1
  9840  9795  9796    1
  9841  9795 10089    1
  9842  9795 10090    1
  9843  9796  9797    1
  9844  9796 10091    1
  9845  9796 10092    1
  9846  9797  9798    1
  9847  9797 10093    1
  9848  9797 10094    1
  9849  9798  9799    1
  9850  9798 10095    1
  9851  9798 10096    1
  9852  9799  9800    1
  9853  9799  9801    2
  9854  9802 10097    1
  9855  9802 10098    1
  9856  9802 10099    1
  9857  9804  9805    1
  9858  9804  9808    2
  9859  9804  9809    1
  9860  9805  9806    2
  9861  9805  9807    1
  9862  9806 10100    1
  9863  9806 10101    1
  9864  9807 10102    1
  9865  9807 10103    1
  9866  9807 10104    1
  9867  9809  9810    1
  9868  9810  9811    1
  9869  9810 10105    1
  9870  9810 10106    1
  9871  9811  9812    1
  9872  9811  9823    1
  9873  9811 10107    1
  9874  9812 10108    1
  9875  9812 10109    1
  9876  9812 10110    1
  9877  9813  9814    1
  9878  9814  9815    1
  9879  9814  9818    1
  9880  9814 10111    1
  9881  9815  9816    1
  9882  9815 10112    1
  9883  9815 10113    1
  9884  9816  9817    1
  9885  9816 10114    1
  9886  9816 10115    1
  9887  9817  9825    1
  9888  9818  9819    1
  9889  9818 10116    1
  9890  9818 10117    1
  9891  9819  9820    1
  9892  9819 10118    1
  9893  9819 10119    1
  9894  9820  9821    1
  9895  9820 10120    1
  9896  9820 10121    1
  9897  9821  9822    1
  9898  9821 10122    1
  9899  9821 10123    1
  9900  9822  9823    1
  9901  9822  9824    2
  9902  9826  9827    1
  9903  9826  9837    1
  9904  9826 10124    1
  9905  9826 10125    1
  9906  9827  9828    1
  9907  9827 10126    1
  9908  9827 10127    1
  9909  9828  9829    1
  9910  9828 10128    1
  9911  9828 10129    1
  9912  9829  9830    1
  9913  9829 10130    1
  9914  9829 10131    1
  9915  9830  9831    1
  9916  9830 10132    1
  9917  9830 10133    1
  9918  9831  9832    1
  9919  9831 10134    1
  9920  9831 10135    1
  9921  9832  9833    1
  9922  9832 10136    1
  9923  9832 10137    1
  9924  9833  9834    1
  9925  9833 10138    1
  9926  9833 10139    1
  9927  9834  9835    1
  9928  9834 10140    1
  9929  9834 10141    1
  9930  9835  9836    1
  9931  9835 10142    1
  9932  9835 10143    1
  9933  9836  9840    1
  9934  9836 10144    1
  9935  9836 10145    1
  9936  9837 10146    1
  9937  9837 10147    1
  9938  9837 10148    1
  9939  9838  9839    1
  9940  9838  9842    1
  9941  9838  9843    1
  9942  9838 10149    1
  9943  9839  9840    1
  9944  9839  9841    2
  9945  9842 10150    1
  9946  9842 10151    1
  9947  9842 10152    1
  9948  9843 10153    1
  9949  9843 10154    1
  9950  9844 10155    1
  9951  9844 10156    1
  9952  9844 10157    1
  9953  9845  9847    2
  9954  9846  9847    1
  9955  9846 10158    1
  9956  9847  9848    1
  9957  9848  9849    1
  9958  9848 10159    1
  9959  9848 10160    1
  9960  9849  9850    1
  9961  9849 10161    1
  9962  9849 10162    1
  9963  9850  9851    1
  9964  9850 10163    1
  9965  9850 10164    1
  9966  9851  9876    1
  9967  9851 10165    1
  9968  9851 10166    1
  9969  9852  9853    1
  9970  9852  9908    1
  9971  9853  9854    1
  9972  9853 10167    1
  9973  9853 10168    1
  9974  9854  9876    1
  9975  9854 10169    1
  9976  9854 10170    1
  9977  9855  9856    1
  9978  9855  9859    2
  9979  9855  9860    1
  9980  9856  9857    1
  9981  9856  9858    1
  9982  9856  9939    1
  9983  9857  9938    1
  9984  9857 10171    1
  9985  9857 10172    1
  9986  9858 10173    1
  9987  9858 10174    1
  9988  9858 10175    1
  9989  9860  9861    1
  9990  9861  9862    1
  9991  9861 10176    1
  9992  9861 10177    1
  9993  9862  9863    1
  9994  9862  9873    1
  9995  9862 10178    1
  9996  9863 10179    1
  9997  9863 10180    1
  9998  9863 10181    1
  9999  9864  9865    1
 10000  9864  9868    1
 10001  9864  9920    1
 10002  9864 10182    1
 10003  9865  9866    1
 10004  9865 10183    1
 10005  9865 10184    1
 10006  9866  9867    1
 10007  9866 10185    1
 10008  9866 10186    1
 10009  9867  9898    1
 10010  9868  9869    1
 10011  9868 10187    1
 10012  9868 10188    1
 10013  9869  9870    1
 10014  9869 10189    1
 10015  9869 10190    1
 10016  9870  9871    1
 10017  9870 10191    1
 10018  9870 10192    1
 10019  9871  9872    1
 10020  9871 10193    1
 10021  9871 10194    1
 10022  9872  9873    1
 10023  9872  9874    2
 10024  9875  9876    1
 10025  9875  9985    1
 10026  9876 10195    1
 10027  9877  9878    1
 10028  9877  9881    2
 10029  9877  9882    1
 10030  9878  9879    2
 10031  9878  9880    1
 10032  9879 10196    1
 10033  9879 10197    1
 10034  9880 10198    1
 10035  9880 10199    1
 10036  9880 10200    1
 10037  9882  9883    1
 10038  9883  9884    1
 10039  9883 10201    1
 10040  9883 10202    1
 10041  9884  9885    1
 10042  9884  9895    1
 10043  9884 10203    1
 10044  9885 10204    1
 10045  9885 10205    1
 10046  9885 10206    1
 10047  9886  9887    1
 10048  9886  9890    1
 10049  9886  9898    1
 10050  9886 10207    1
 10051  9887  9888    1
 10052  9887 10208    1
 10053  9887 10209    1
 10054  9888  9889    1
 10055  9888 10210    1
 10056  9888 10211    1
 10057  9889  9897    1
 10058  9890  9891    1
 10059  9890 10212    1
 10060  9890 10213    1
 10061  9891  9892    1
 10062  9891 10214    1
 10063  9891 10215    1
 10064  9892  9893    1
 10065  9892 10216    1
 10066  9892 10217    1
 10067  9893  9894    1
 10068  9893 10218    1
 10069  9893 10219    1
 10070  9894  9895    1
 10071  9894  9896    2
 10072  9899  9900    1
 10073  9899  9903    2
 10074  9899  9904    1
 10075  9900  9901    2
 10076  9900  9902    1
 10077  9901 10220    1
 10078  9901 10221    1
 10079  9902 10222    1
 10080  9902 10223    1
 10081  9902 10224    1
 10082  9904  9905    1
 10083  9905  9906    1
 10084  9905 10225    1
 10085  9905 10226    1
 10086  9906  9907    1
 10087  9906  9918    1
 10088  9906 10227    1
 10089  9907 10228    1
 10090  9907 10229    1
 10091  9907 10230    1
 10092  9908  9909    1
 10093  9909  9910    1
 10094  9909  9913    1
 10095  9909 10231    1
 10096  9910  9911    1
 10097  9910 10232    1
 10098  9910 10233    1
 10099  9911  9912    1
 10100  9911 10234    1
 10101  9911 10235    1
 10102  9912  9920    2
 10103  9913  9914    1
 10104  9913 10236    1
 10105  9913 10237    1
 10106  9914  9915    1
 10107  9914 10238    1
 10108  9914 10239    1
 10109  9915  9916    1
 10110  9915 10240    1
 10111  9915 10241    1
 10112  9916  9917    1
 10113  9916 10242    1
 10114  9916 10243    1
 10115  9917  9918    1
 10116  9917  9919    2
 10117  9921  9922    1
 10118  9921  9932    1
 10119  9921 10244    1
 10120  9921 10245    1
 10121  9922  9923    1
 10122  9922 10246    1
 10123  9922 10247    1
 10124  9923  9924    1
 10125  9923 10248    1
 10126  9923 10249    1
 10127  9924  9925    1
 10128  9924 10250    1
 10129  9924 10251    1
 10130  9925  9926    1
 10131  9925 10252    1
 10132  9925 10253    1
 10133  9926  9927    1
 10134  9926 10254    1
 10135  9926 10255    1
 10136  9927  9928    1
 10137  9927 10256    1
 10138  9927 10257    1
 10139  9928  9929    1
 10140  9928 10258    1
 10141  9928 10259    1
 10142  9929  9930    1
 10143  9929 10260    1
 10144  9929 10261    1
 10145  9930  9931    1
 10146  9930 10262    1
 10147  9930 10263    1
 10148  9931  9935    1
 10149  9931 10264    1
 10150  9931 10265    1
 10151  9932 10266    1
 10152  9932 10267    1
 10153  9932 10268    1
 10154  9933  9934    1
 10155  9933  9937    1
 10156  9933  9938    1
 10157  9933 10269    1
 10158  9934  9935    1
 10159  9934  9936    2
 10160  9937 10270    1
 10161  9937 10271    1
 10162  9937 10272    1
 10163  9938 10273    1
 10164  9938 10274    1
 10165  9939 10275    1
 10166  9939 10276    1
 10167  9939 10277    1
 10168  9940  9942    2
 10169  9941  9942    1
 10170  9941 10278    1
 10171  9942  9943    1
 10172  9943  9944    1
 10173  9943 10279    1
 10174  9943 10280    1
 10175  9944  9945    1
 10176  9944 10281    1
 10177  9944 10282    1
 10178  9945  9946    1
 10179  9945 10283    1
 10180  9945 10284    1
 10181  9946  9971    1
 10182  9946 10285    1
 10183  9946 10286    1
 10184  9947  9948    1
 10185  9947 10003    1
 10186  9948  9949    1
 10187  9948 10287    1
 10188  9948 10288    1
 10189  9949  9971    1
 10190  9949 10289    1
 10191  9949 10290    1
 10192  9950  9951    1
 10193  9950  9954    2
 10194  9950  9955    1
 10195  9951  9952    1
 10196  9951  9953    1
 10197  9951 10034    1
 10198  9952 10033    1
 10199  9952 10291    1
 10200  9952 10292    1
 10201  9953 10293    1
 10202  9953 10294    1
 10203  9953 10295    1
 10204  9955  9956    1
 10205  9956  9957    1
 10206  9956 10296    1
 10207  9956 10297    1
 10208  9957  9958    1
 10209  9957  9968    1
 10210  9957 10298    1
 10211  9958 10299    1
 10212  9958 10300    1
 10213  9958 10301    1
 10214  9959  9960    1
 10215  9959  9963    1
 10216  9959 10015    1
 10217  9959 10302    1
 10218  9960  9961    1
 10219  9960 10303    1
 10220  9960 10304    1
 10221  9961  9962    1
 10222  9961 10305    1
 10223  9961 10306    1
 10224  9962  9993    1
 10225  9963  9964    1
 10226  9963 10307    1
 10227  9963 10308    1
 10228  9964  9965    1
 10229  9964 10309    1
 10230  9964 10310    1
 10231  9965  9966    1
 10232  9965 10311    1
 10233  9965 10312    1
 10234  9966  9967    1
 10235  9966 10313    1
 10236  9966 10314    1
 10237  9967  9968    1
 10238  9967  9969    2
 10239  9970  9971    1
 10240  9970  9972    1
 10241  9971 10315    1
 10242  9972 10316    1
 10243  9972 10317    1
 10244  9972 10318    1
 10245  9973  9974    1
 10246  9973  9977    2
 10247  9973  9978    1
 10248  9974  9975    2
 10249  9974  9976    1
 10250  9975 10319    1
 10251  9975 10320    1
 10252  9976 10321    1
 10253  9976 10322    1
 10254  9976 10323    1
 10255  9978  9979    1
 10256  9979  9980    1
 10257  9979 10324    1
 10258  9979 10325    1
 10259  9980  9981    1
 10260  9980  9991    1
 10261  9980 10326    1
 10262  9981 10327    1
 10263  9981 10328    1
 10264  9981 10329    1
 10265  9982  9983    1
 10266  9982  9986    1
 10267  9982  9993    1
 10268  9982 10330    1
 10269  9983  9984    1
 10270  9983 10331    1
 10271  9983 10332    1
 10272  9984  9985    1
 10273  9984 10333    1
 10274  9984 10334    1
 10275  9986  9987    1
 10276  9986 10335    1
 10277  9986 10336    1
 10278  9987  9988    1
 10279  9987 10337    1
 10280  9987 10338    1
 10281  9988  9989    1
 10282  9988 10339    1
 10283  9988 10340    1
 10284  9989  9990    1
 10285  9989 10341    1
 10286  9989 10342    1
 10287  9990  9991    1
 10288  9990  9992    2
 10289  9994  9995    1
 10290  9994  9998    2
 10291  9994  9999    1
 10292  9995  9996    2
 10293  9995  9997    1
 10294  9996 10343    1
 10295  9996 10344    1
 10296  9997 10345    1
 10297  9997 10346    1
 10298  9997 10347    1
 10299  9999 10000    1
 10300 10000 10001    1
 10301 10000 10348    1
 10302 10000 10349    1
 10303 10001 10002    1
 10304 10001 10013    1
 10305 10001 10350    1
 10306 10002 10351    1
 10307 10002 10352    1
 10308 10002 10353    1
 10309 10003 10004    1
 10310 10004 10005    1
 10311 10004 10008    1
 10312 10004 10354    1
 10313 10005 10006    1
 10314 10005 10355    1
 10315 10005 10356    1
 10316 10006 10007    1
 10317 10006 10357    1
 10318 10006 10358    1
 10319 10007 10015    1
 10320 10008 10009    1
 10321 10008 10359    1
 10322 10008 10360    1
 10323 10009 10010    1
 10324 10009 10361    1
 10325 10009 10362    1
 10326 10010 10011    1
 10327 10010 10363    1
 10328 10010 10364    1
 10329 10011 10012    1
 10330 10011 10365    1
 10331 10011 10366    1
 10332 10012 10013    1
 10333 10012 10014    2
 10334 10016 10017    1
 10335 10016 10027    1
 10336 10016 10367    1
 10337 10016 10368    1
 10338 10017 10018    1
 10339 10017 10369    1
 10340 10017 10370    1
 10341 10018 10019    1
 10342 10018 10371    1
 10343 10018 10372    1
 10344 10019 10020    1
 10345 10019 10373    1
 10346 10019 10374    1
 10347 10020 10021    1
 10348 10020 10375    1
 10349 10020 10376    1
 10350 10021 10022    1
 10351 10021 10377    1
 10352 10021 10378    1
 10353 10022 10023    1
 10354 10022 10379    1
 10355 10022 10380    1
 10356 10023 10024    1
 10357 10023 10381    1
 10358 10023 10382    1
 10359 10024 10025    1
 10360 10024 10383    1
 10361 10024 10384    1
 10362 10025 10026    1
 10363 10025 10385    1
 10364 10025 10386    1
 10365 10026 10030    1
 10366 10026 10387    1
 10367 10026 10388    1
 10368 10027 10389    1
 10369 10027 10390    1
 10370 10027 10391    1
 10371 10028 10029    1
 10372 10028 10032    1
 10373 10028 10033    1
 10374 10028 10392    1
 10375 10029 10030    1
 10376 10029 10031    2
 10377 10032 10393    1
 10378 10032 10394    1
 10379 10032 10395    1
 10380 10033 10396    1
 10381 10033 10397    1
 10382 10034 10398    1
 10383 10034 10399    1
 10384 10034 10400    1
 10385 10401 10403    2
 10386 10402 10403    1
 10387 10402 10685    1
 10388 10403 10404    1
 10389 10404 10405    1
 10390 10404 10686    1
 10391 10404 10687    1
 10392 10405 10406    1
 10393 10405 10688    1
 10394 10405 10689    1
 10395 10406 10407    1
 10396 10406 10690    1
 10397 10406 10691    1
 10398 10407 10431    1
 10399 10407 10692    1
 10400 10407 10693    1
 10401 10408 10409    1
 10402 10408 10463    2
 10403 10409 10410    1
 10404 10409 10694    1
 10405 10409 10695    1
 10406 10410 10431    1
 10407 10410 10696    1
 10408 10410 10697    1
 10409 10411 10412    1
 10410 10411 10415    2
 10411 10411 10416    1
 10412 10412 10413    1
 10413 10412 10414    1
 10414 10412 10494    1
 10415 10413 10493    1
 10416 10413 10698    1
 10417 10413 10699    1
 10418 10414 10700    1
 10419 10414 10701    1
 10420 10414 10702    1
 10421 10416 10417    1
 10422 10417 10418    1
 10423 10417 10703    1
 10424 10417 10704    1
 10425 10418 10419    1
 10426 10418 10429    1
 10427 10418 10705    1
 10428 10419 10706    1
 10429 10419 10707    1
 10430 10419 10708    1
 10431 10420 10421    1
 10432 10420 10424    1
 10433 10420 10475    1
 10434 10420 10709    1
 10435 10421 10422    1
 10436 10421 10710    1
 10437 10421 10711    1
 10438 10422 10423    1
 10439 10422 10712    1
 10440 10422 10713    1
 10441 10423 10453    1
 10442 10424 10425    1
 10443 10424 10714    1
 10444 10424 10715    1
 10445 10425 10426    1
 10446 10425 10716    1
 10447 10425 10717    1
 10448 10426 10427    1
 10449 10426 10718    1
 10450 10426 10719    1
 10451 10427 10428    1
 10452 10427 10720    1
 10453 10427 10721    1
 10454 10428 10429    1
 10455 10428 10430    2
 10456 10431 10547    1
 10457 10431 10722    1
 10458 10432 10433    1
 10459 10432 10436    2
 10460 10432 10437    1
 10461 10433 10434    2
 10462 10433 10435    1
 10463 10434 10723    1
 10464 10434 10724    1
 10465 10435 10725    1
 10466 10435 10726    1
 10467 10435 10727    1
 10468 10437 10438    1
 10469 10438 10439    1
 10470 10438 10728    1
 10471 10438 10729    1
 10472 10439 10440    1
 10473 10439 10450    1
 10474 10439 10730    1
 10475 10440 10731    1
 10476 10440 10732    1
 10477 10440 10733    1
 10478 10441 10442    1
 10479 10441 10445    1
 10480 10441 10453    1
 10481 10441 10734    1
 10482 10442 10443    1
 10483 10442 10735    1
 10484 10442 10736    1
 10485 10443 10444    1
 10486 10443 10737    1
 10487 10443 10738    1
 10488 10444 10452    1
 10489 10445 10446    1
 10490 10445 10739    1
 10491 10445 10740    1
 10492 10446 10447    1
 10493 10446 10741    1
 10494 10446 10742    1
 10495 10447 10448    1
 10496 10447 10743    1
 10497 10447 10744    1
 10498 10448 10449    1
 10499 10448 10745    1
 10500 10448 10746    1
 10501 10449 10450    1
 10502 10449 10451    2
 10503 10452 10747    1
 10504 10452 10748    1
 10505 10452 10749    1
 10506 10454 10455    1
 10507 10454 10458    2
 10508 10454 10459    1
 10509 10455 10456    2
 10510 10455 10457    1
 10511 10456 10750    1
 10512 10456 10751    1
 10513 10457 10752    1
 10514 10457 10753    1
 10515 10457 10754    1
 10516 10459 10460    1
 10517 10460 10461    1
 10518 10460 10755    1
 10519 10460 10756    1
 10520 10461 10462    1
 10521 10461 10473    1
 10522 10461 10757    1
 10523 10462 10758    1
 10524 10462 10759    1
 10525 10462 10760    1
 10526 10463 10464    1
 10527 10464 10465    1
 10528 10464 10468    1
 10529 10464 10761    1
 10530 10465 10466    1
 10531 10465 10762    1
 10532 10465 10763    1
 10533 10466 10467    1
 10534 10466 10764    1
 10535 10466 10765    1
 10536 10467 10475    1
 10537 10468 10469    1
 10538 10468 10766    1
 10539 10468 10767    1
 10540 10469 10470    1
 10541 10469 10768    1
 10542 10469 10769    1
 10543 10470 10471    1
 10544 10470 10770    1
 10545 10470 10771    1
 10546 10471 10472    1
 10547 10471 10772    1
 10548 10471 10773    1
 10549 10472 10473    1
 10550 10472 10474    2
 10551 10476 10477    1
 10552 10476 10487    1
 10553 10476 10774    1
 10554 10476 10775    1
 10555 10477 10478    1
 10556 10477 10776    1
 10557 10477 10777    1
 10558 10478 10479    1
 10559 10478 10778    1
 10560 10478 10779    1
 10561 10479 10480    1
 10562 10479 10780    1
 10563 10479 10781    1
 10564 10480 10481    1
 10565 10480 10782    1
 10566 10480 10783    1
 10567 10481 10482    1
 10568 10481 10784    1
 10569 10481 10785    1
 10570 10482 10483    1
 10571 10482 10786    1
 10572 10482 10787    1
 10573 10483 10484    1
 10574 10483 10788    1
 10575 10483 10789    1
 10576 10484 10485    1
 10577 10484 10790    1
 10578 10484 10791    1
 10579 10485 10486    1
 10580 10485 10792    1
 10581 10485 10793    1
 10582 10486 10490    1
 10583 10486 10794    1
 10584 10486 10795    1
 10585 10487 10796    1
 10586 10487 10797    1
 10587 10487 10798    1
 10588 10488 10489    1
 10589 10488 10492    1
 10590 10488 10493    1
 10591 10488 10799    1
 10592 10489 10490    1
 10593 10489 10491    2
 10594 10492 10800    1
 10595 10492 10801    1
 10596 10492 10802    1
 10597 10493 10803    1
 10598 10493 10804    1
 10599 10494 10805    1
 10600 10494 10806    1
 10601 10494 10807    1
 10602 10495 10497    2
 10603 10496 10497    1
 10604 10496 10808    1
 10605 10497 10498    1
 10606 10498 10499    1
 10607 10498 10809    1
 10608 10498 10810    1
 10609 10499 10500    1
 10610 10499 10811    1
 10611 10499 10812    1
 10612 10500 10501    1
 10613 10500 10813    1
 10614 10500 10814    1
 10615 10501 10526    1
 10616 10501 10815    1
 10617 10501 10816    1
 10618 10502 10503    1
 10619 10502 10558    1
 10620 10503 10504    1
 10621 10503 10817    1
 10622 10503 10818    1
 10623 10504 10526    1
 10624 10504 10819    1
 10625 10504 10820    1
 10626 10505 10506    1
 10627 10505 10509    2
 10628 10505 10510    1
 10629 10506 10507    1
 10630 10506 10508    1
 10631 10506 10589    1
 10632 10507 10588    1
 10633 10507 10821    1
 10634 10507 10822    1
 10635 10508 10823    1
 10636 10508 10824    1
 10637 10508 10825    1
 10638 10510 10511    1
 10639 10511 10512    1
 10640 10511 10826    1
 10641 10511 10827    1
 10642 10512 10513    1
 10643 10512 10523    1
 10644 10512 10828    1
 10645 10513 10829    1
 10646 10513 10830    1
 10647 10513 10831    1
 10648 10514 10515    1
 10649 10514 10518    1
 10650 10514 10570    1
 10651 10514 10832    1
 10652 10515 10516    1
 10653 10515 10833    1
 10654 10515 10834    1
 10655 10516 10517    1
 10656 10516 10835    1
 10657 10516 10836    1
 10658 10517 10548    1
 10659 10518 10519    1
 10660 10518 10837    1
 10661 10518 10838    1
 10662 10519 10520    1
 10663 10519 10839    1
 10664 10519 10840    1
 10665 10520 10521    1
 10666 10520 10841    1
 10667 10520 10842    1
 10668 10521 10522    1
 10669 10521 10843    1
 10670 10521 10844    1
 10671 10522 10523    1
 10672 10522 10524    2
 10673 10525 10526    1
 10674 10525 10635    1
 10675 10526 10845    1
 10676 10527 10528    1
 10677 10527 10531    2
 10678 10527 10532    1
 10679 10528 10529    2
 10680 10528 10530    1
 10681 10529 10846    1
 10682 10529 10847    1
 10683 10530 10848    1
 10684 10530 10849    1
 10685 10530 10850    1
 10686 10532 10533    1
 10687 10533 10534    1
 10688 10533 10851    1
 10689 10533 10852    1
 10690 10534 10535    1
 10691 10534 10545    1
 10692 10534 10853    1
 10693 10535 10854    1
 10694 10535 10855    1
 10695 10535 10856    1
 10696 10536 10537    1
 10697 10536 10540    1
 10698 10536 10548    1
 10699 10536 10857    1
 10700 10537 10538    1
 10701 10537 10858    1
 10702 10537 10859    1
 10703 10538 10539    1
 10704 10538 10860    1
 10705 10538 10861    1
 10706 10539 10547    1
 10707 10540 10541    1
 10708 10540 10862    1
 10709 10540 10863    1
 10710 10541 10542    1
 10711 10541 10864    1
 10712 10541 10865    1
 10713 10542 10543    1
 10714 10542 10866    1
 10715 10542 10867    1
 10716 10543 10544    1
 10717 10543 10868    1
 10718 10543 10869    1
 10719 10544 10545    1
 10720 10544 10546    2
 10721 10549 10550    1
 10722 10549 10553    2
 10723 10549 10554    1
 10724 10550 10551    2
 10725 10550 10552    1
 10726 10551 10870    1
 10727 10551 10871    1
 10728 10552 10872    1
 10729 10552 10873    1
 10730 10552 10874    1
 10731 10554 10555    1
 10732 10555 10556    1
 10733 10555 10875    1
 10734 10555 10876    1
 10735 10556 10557    1
 10736 10556 10568    1
 10737 10556 10877    1
 10738 10557 10878    1
 10739 10557 10879    1
 10740 10557 10880    1
 10741 10558 10559    1
 10742 10559 10560    1
 10743 10559 10563    1
 10744 10559 10881    1
 10745 10560 10561    1
 10746 10560 10882    1
 10747 10560 10883    1
 10748 10561 10562    1
 10749 10561 10884    1
 10750 10561 10885    1
 10751 10562 10570    2
 10752 10563 10564    1
 10753 10563 10886    1
 10754 10563 10887    1
 10755 10564 10565    1
 10756 10564 10888    1
 10757 10564 10889    1
 10758 10565 10566    1
 10759 10565 10890    1
 10760 10565 10891    1
 10761 10566 10567    1
 10762 10566 10892    1
 10763 10566 10893    1
 10764 10567 10568    1
 10765 10567 10569    2
 10766 10571 10572    1
 10767 10571 10582    1
 10768 10571 10894    1
 10769 10571 10895    1
 10770 10572 10573    1
 10771 10572 10896    1
 10772 10572 10897    1
 10773 10573 10574    1
 10774 10573 10898    1
 10775 10573 10899    1
 10776 10574 10575    1
 10777 10574 10900    1
 10778 10574 10901    1
 10779 10575 10576    1
 10780 10575 10902    1
 10781 10575 10903    1
 10782 10576 10577    1
 10783 10576 10904    1
 10784 10576 10905    1
 10785 10577 10578    1
 10786 10577 10906    1
 10787 10577 10907    1
 10788 10578 10579    1
 10789 10578 10908    1
 10790 10578 10909    1
 10791 10579 10580    1
 10792 10579 10910    1
 10793 10579 10911    1
 10794 10580 10581    1
 10795 10580 10912    1
 10796 10580 10913    1
 10797 10581 10585    1
 10798 10581 10914    1
 10799 10581 10915    1
 10800 10582 10916    1
 10801 10582 10917    1
 10802 10582 10918    1
 10803 10583 10584    1
 10804 10583 10587    1
 10805 10583 10588    1
 10806 10583 10919    1
 10807 10584 10585    1
 10808 10584 10586    2
 10809 10587 10920    1
 10810 10587 10921    1
 10811 10587 10922    1
 10812 10588 10923    1
 10813 10588 10924    1
 10814 10589 10925    1
 10815 10589 10926    1
 10816 10589 10927    1
 10817 10590 10592    2
 10818 10591 10592    1
 10819 10591 10928    1
 10820 10592 10593    1
 10821 10593 10594    1
 10822 10593 10929    1
 10823 10593 10930    1
 10824 10594 10595    1
 10825 10594 10931    1
 10826 10594 10932    1
 10827 10595 10596    1
 10828 10595 10933    1
 10829 10595 10934    1
 10830 10596 10621    1
 10831 10596 10935    1
 10832 10596 10936    1
 10833 10597 10598    1
 10834 10597 10653    1
 10835 10598 10599    1
 10836 10598 10937    1
 10837 10598 10938    1
 10838 10599 10621    1
 10839 10599 10939    1
 10840 10599 10940    1
 10841 10600 10601    1
 10842 10600 10604    2
 10843 10600 10605    1
 10844 10601 10602    1
 10845 10601 10603    1
 10846 10601 10684    1
 10847 10602 10683    1
 10848 10602 10941    1
 10849 10602 10942    1
 10850 10603 10943    1
 10851 10603 10944    1
 10852 10603 10945    1
 10853 10605 10606    1
 10854 10606 10607    1
 10855 10606 10946    1
 10856 10606 10947    1
 10857 10607 10608    1
 10858 10607 10618    1
 10859 10607 10948    1
 10860 10608 10949    1
 10861 10608 10950    1
 10862 10608 10951    1
 10863 10609 10610    1
 10864 10609 10613    1
 10865 10609 10665    1
 10866 10609 10952    1
 10867 10610 10611    1
 10868 10610 10953    1
 10869 10610 10954    1
 10870 10611 10612    1
 10871 10611 10955    1
 10872 10611 10956    1
 10873 10612 10643    1
 10874 10613 10614    1
 10875 10613 10957    1
 10876 10613 10958    1
 10877 10614 10615    1
 10878 10614 10959    1
 10879 10614 10960    1
 10880 10615 10616    1
 10881 10615 10961    1
 10882 10615 10962    1
 10883 10616 10617    1
 10884 10616 10963    1
 10885 10616 10964    1
 10886 10617 10618    1
 10887 10617 10619    2
 10888 10620 10621    1
 10889 10620 10622    1
 10890 10621 10965    1
 10891 10622 10966    1
 10892 10622 10967    1
 10893 10622 10968    1
 10894 10623 10624    1
 10895 10623 10627    2
 10896 10623 10628    1
 10897 10624 10625    2
 10898 10624 10626    1
 10899 10625 10969    1
 10900 10625 10970    1
 10901 10626 10971    1
 10902 10626 10972    1
 10903 10626 10973    1
 10904 10628 10629    1
 10905 10629 10630    1
 10906 10629 10974    1
 10907 10629 10975    1
 10908 10630 10631    1
 10909 10630 10641    1
 10910 10630 10976    1
 10911 10631 10977    1
 10912 10631 10978    1
 10913 10631 10979    1
 10914 10632 10633    1
 10915 10632 10636    1
 10916 10632 10643    1
 10917 10632 10980    1
 10918 10633 10634    1
 10919 10633 10981    1
 10920 10633 10982    1
 10921 10634 10635    1
 10922 10634 10983    1
 10923 10634 10984    1
 10924 10636 10637    1
 10925 10636 10985    1
 10926 10636 10986    1
 10927 10637 10638    1
 10928 10637 10987    1
 10929 10637 10988    1
 10930 10638 10639    1
 10931 10638 10989    1
 10932 10638 10990    1
 10933 10639 10640    1
 10934 10639 10991    1
 10935 10639 10992    1
 10936 10640 10641    1
 10937 10640 10642    2
 10938 10644 10645    1
 10939 10644 10648    2
 10940 10644 10649    1
 10941 10645 10646    2
 10942 10645 10647    1
 10943 10646 10993    1
 10944 10646 10994    1
 10945 10647 10995    1
 10946 10647 10996    1
 10947 10647 10997    1
 10948 10649 10650    1
 10949 10650 10651    1
 10950 10650 10998    1
 10951 10650 10999    1
 10952 10651 10652    1
 10953 10651 10663    1
 10954 10651 11000    1
 10955 10652 11001    1
 10956 10652 11002    1
 10957 10652 11003    1
 10958 10653 10654    1
 10959 10654 10655    1
 10960 10654 10658    1
 10961 10654 11004    1
 10962 10655 10656    1
 10963 10655 11005    1
 10964 10655 11006    1
 10965 10656 10657    1
 10966 10656 11007    1
 10967 10656 11008    1
 10968 10657 10665    1
 10969 10658 10659    1
 10970 10658 11009    1
 10971 10658 11010    1
 10972 10659 10660    1
 10973 10659 11011    1
 10974 10659 11012    1
 10975 10660 10661    1
 10976 10660 11013    1
 10977 10660 11014    1
 10978 10661 10662    1
 10979 10661 11015    1
 10980 10661 11016    1
 10981 10662 10663    1
 10982 10662 10664    2
 10983 10666 10667    1
 10984 10666 10677    1
 10985 10666 11017    1
 10986 10666 11018    1
 10987 10667 10668    1
 10988 10667 11019    1
 10989 10667 11020    1
 10990 10668 10669    1
 10991 10668 11021    1
 10992 10668 11022    1
 10993 10669 10670    1
 10994 10669 11023    1
 10995 10669 11024    1
 10996 10670 10671    1
 10997 10670 11025    1
 10998 10670 11026    1
 10999 10671 10672    1
 11000 10671 11027    1
 11001 10671 11028    1
 11002 10672 10673    1
 11003 10672 11029    1
 11004 10672 11030    1
 11005 10673 10674    1
 11006 10673 11031    1
 11007 10673 11032    1
 11008 10674 10675    1
 11009 10674 11033    1
 11010 10674 11034    1
 11011 10675 10676    1
 11012 10675 11035    1
 11013 10675 11036    1
 11014 10676 10680    1
 11015 10676 11037    1
 11016 10676 11038    1
 11017 10677 11039    1
 11018 10677 11040    1
 11019 10677 11041    1
 11020 10678 10679    1
 11021 10678 10682    1
 11022 10678 10683    1
 11023 10678 11042    1
 11024 10679 10680    1
 11025 10679 10681    2
 11026 10682 11043    1
 11027 10682 11044    1
 11028 10682 11045    1
 11029 10683 11046    1
 11030 10683 11047    1
 11031 10684 11048    1
 11032 10684 11049    1
 11033 10684 11050    1
 11034 11051 11053    2
 11035 11052 11053    1
 11036 11052 11335    1
 11037 11053 11054    1
 11038 11054 11055    1
 11039 11054 11336    1
 11040 11054 11337    1
 11041 11055 11056    1
 11042 11055 11338    1
 11043 11055 11339    1
 11044 11056 11057    1
 11045 11056 11340    1
 11046 11056 11341    1
 11047 11057 11081    1
 11048 11057 11342    1
 11049 11057 11343    1
 11050 11058 11059    1
 11051 11058 11113    2
 11052 11059 11060    1
 11053 11059 11344    1
 11054 11059 11345    1
 11055 11060 11081    1
 11056 11060 11346    1
 11057 11060 11347    1
 11058 11061 11062    1
 11059 11061 11065    2
 11060 11061 11066    1
 11061 11062 11063    1
 11062 11062 11064    1
 11063 11062 11144    1
 11064 11063 11143    1
 11065 11063 11348    1
 11066 11063 11349    1
 11067 11064 11350    1
 11068 11064 11351    1
 11069 11064 11352    1
 11070 11066 11067    1
 11071 11067 11068    1
 11072 11067 11353    1
 11073 11067 11354    1
 11074 11068 11069    1
 11075 11068 11079    1
 11076 11068 11355    1
 11077 11069 11356    1
 11078 11069 11357    1
 11079 11069 11358    1
 11080 11070 11071    1
 11081 11070 11074    1
 11082 11070 11125    1
 11083 11070 11359    1
 11084 11071 11072    1
 11085 11071 11360    1
 11086 11071 11361    1
 11087 11072 11073    1
 11088 11072 11362    1
 11089 11072 11363    1
 11090 11073 11103    1
 11091 11074 11075    1
 11092 11074 11364    1
 11093 11074 11365    1
 11094 11075 11076    1
 11095 11075 11366    1
 11096 11075 11367    1
 11097 11076 11077    1
 11098 11076 11368    1
 11099 11076 11369    1
 11100 11077 11078    1
 11101 11077 11370    1
 11102 11077 11371    1
 11103 11078 11079    1
 11104 11078 11080    2
 11105 11081 11197    1
 11106 11081 11372    1
 11107 11082 11083    1
 11108 11082 11086    2
 11109 11082 11087    1
 11110 11083 11084    2
 11111 11083 11085    1
 11112 11084 11373    1
 11113 11084 11374    1
 11114 11085 11375    1
 11115 11085 11376    1
 11116 11085 11377    1
 11117 11087 11088    1
 11118 11088 11089    1
 11119 11088 11378    1
 11120 11088 11379    1
 11121 11089 11090    1
 11122 11089 11100    1
 11123 11089 11380    1
 11124 11090 11381    1
 11125 11090 11382    1
 11126 11090 11383    1
 11127 11091 11092    1
 11128 11091 11095    1
 11129 11091 11103    1
 11130 11091 11384    1
 11131 11092 11093    1
 11132 11092 11385    1
 11133 11092 11386    1
 11134 11093 11094    1
 11135 11093 11387    1
 11136 11093 11388    1
 11137 11094 11102    1
 11138 11095 11096    1
 11139 11095 11389    1
 11140 11095 11390    1
 11141 11096 11097    1
 11142 11096 11391    1
 11143 11096 11392    1
 11144 11097 11098    1
 11145 11097 11393    1
 11146 11097 11394    1
 11147 11098 11099    1
 11148 11098 11395    1
 11149 11098 11396    1
 11150 11099 11100    1
 11151 11099 11101    2
 11152 11102 11397    1
 11153 11102 11398    1
 11154 11102 11399    1
 11155 11104 11105    1
 11156 11104 11108    2
 11157 11104 11109    1
 11158 11105 11106    2
 11159 11105 11107    1
 11160 11106 11400    1
 11161 11106 11401    1
 11162 11107 11402    1
 11163 11107 11403    1
 11164 11107 11404    1
 11165 11109 11110    1
 11166 11110 11111    1
 11167 11110 11405    1
 11168 11110 11406    1
 11169 11111 11112    1
 11170 11111 11123    1
 11171 11111 11407    1
 11172 11112 11408    1
 11173 11112 11409    1
 11174 11112 11410    1
 11175 11113 11114    1
 11176 11114 11115    1
 11177 11114 11118    1
 11178 11114 11411    1
 11179 11115 11116    1
 11180 11115 11412    1
 11181 11115 11413    1
 11182 11116 11117    1
 11183 11116 11414    1
 11184 11116 11415    1
 11185 11117 11125    1
 11186 11118 11119    1
 11187 11118 11416    1
 11188 11118 11417    1
 11189 11119 11120    1
 11190 11119 11418    1
 11191 11119 11419    1
 11192 11120 11121    1
 11193 11120 11420    1
 11194 11120 11421    1
 11195 11121 11122    1
 11196 11121 11422    1
 11197 11121 11423    1
 11198 11122 11123    1
 11199 11122 11124    2
 11200 11126 11127    1
 11201 11126 11137    1
 11202 11126 11424    1
 11203 11126 11425    1
 11204 11127 11128    1
 11205 11127 11426    1
 11206 11127 11427    1
 11207 11128 11129    1
 11208 11128 11428    1
 11209 11128 11429    1
 11210 11129 11130    1
 11211 11129 11430    1
 11212 11129 11431    1
 11213 11130 11131    1
 11214 11130 11432    1
 11215 11130 11433    1
 11216 11131 11132    1
 11217 11131 11434    1
 11218 11131 11435    1
 11219 11132 11133    1
 11220 11132 11436    1
 11221 11132 11437    1
 11222 11133 11134    1
 11223 11133 11438    1
 11224 11133 11439    1
 11225 11134 11135    1
 11226 11134 11440    1
 11227 11134 11441    1
 11228 11135 11136    1
 11229 11135 11442    1
 11230 11135 11443    1
 11231 11136 11140    1
 11232 11136 11444    1
 11233 11136 11445    1
 11234 11137 11446    1
 11235 11137 11447    1
 11236 11137 11448    1
 11237 11138 11139    1
 11238 11138 11142    1
 11239 11138 11143    1
 11240 11138 11449    1
 11241 11139 11140    1
 11242 11139 11141    2
 11243 11142 11450    1
 11244 11142 11451    1
 11245 11142 11452    1
 11246 11143 11453    1
 11247 11143 11454    1
 11248 11144 11455    1
 11249 11144 11456    1
 11250 11144 11457    1
 11251 11145 11147    2
 11252 11146 11147    1
 11253 11146 11458    1
 11254 11147 11148    1
 11255 11148 11149    1
 11256 11148 11459    1
 11257 11148 11460    1
 11258 11149 11150    1
 11259 11149 11461    1
 11260 11149 11462    1
 11261 11150 11151    1
 11262 11150 11463    1
 11263 11150 11464    1
 11264 11151 11176    1
 11265 11151 11465    1
 11266 11151 11466    1
 11267 11152 11153    1
 11268 11152 11208    1
 11269 11153 11154    1
 11270 11153 11467    1
 11271 11153 11468    1
 11272 11154 11176    1
 11273 11154 11469    1
 11274 11154 11470    1
 11275 11155 11156    1
 11276 11155 11159    2
 11277 11155 11160    1
 11278 11156 11157    1
 11279 11156 11158    1
 11280 11156 11239    1
 11281 11157 11238    1
 11282 11157 11471    1
 11283 11157 11472    1
 11284 11158 11473    1
 11285 11158 11474    1
 11286 11158 11475    1
 11287 11160 11161    1
 11288 11161 11162    1
 11289 11161 11476    1
 11290 11161 11477    1
 11291 11162 11163    1
 11292 11162 11173    1
 11293 11162 11478    1
 11294 11163 11479    1
 11295 11163 11480    1
 11296 11163 11481    1
 11297 11164 11165    1
 11298 11164 11168    1
 11299 11164 11220    1
 11300 11164 11482    1
 11301 11165 11166    1
 11302 11165 11483    1
 11303 11165 11484    1
 11304 11166 11167    1
 11305 11166 11485    1
 11306 11166 11486    1
 11307 11167 11198    1
 11308 11168 11169    1
 11309 11168 11487    1
 11310 11168 11488    1
 11311 11169 11170    1
 11312 11169 11489    1
 11313 11169 11490    1
 11314 11170 11171    1
 11315 11170 11491    1
 11316 11170 11492    1
 11317 11171 11172    1
 11318 11171 11493    1
 11319 11171 11494    1
 11320 11172 11173    1
 11321 11172 11174    2
 11322 11175 11176    1
 11323 11175 11285    1
 11324 11176 11495    1
 11325 11177 11178    1
 11326 11177 11181    2
 11327 11177 11182    1
 11328 11178 11179    2
 11329 11178 11180    1
 11330 11179 11496    1
 11331 11179 11497    1
 11332 11180 11498    1
 11333 11180 11499    1
 11334 11180 11500    1
 11335 11182 11183    1
 11336 11183 11184    1
 11337 11183 11501    1
 11338 11183 11502    1
 11339 11184 11185    1
 11340 11184 11195    1
 11341 11184 11503    1
 11342 11185 11504    1
 11343 11185 11505    1
 11344 11185 11506    1
 11345 11186 11187    1
 11346 11186 11190    1
 11347 11186 11198    1
 11348 11186 11507    1
 11349 11187 11188    1
 11350 11187 11508    1
 11351 11187 11509    1
 11352 11188 11189    1
 11353 11188 11510    1
 11354 11188 11511    1
 11355 11189 11197    1
 11356 11190 11191    1
 11357 11190 11512    1
 11358 11190 11513    1
 11359 11191 11192    1
 11360 11191 11514    1
 11361 11191 11515    1
 11362 11192 11193    1
 11363 11192 11516    1
 11364 11192 11517    1
 11365 11193 11194    1
 11366 11193 11518    1
 11367 11193 11519    1
 11368 11194 11195    1
 11369 11194 11196    2
 11370 11199 11200    1
 11371 11199 11203    2
 11372 11199 11204    1
 11373 11200 11201    2
 11374 11200 11202    1
 11375 11201 11520    1
 11376 11201 11521    1
 11377 11202 11522    1
 11378 11202 11523    1
 11379 11202 11524    1
 11380 11204 11205    1
 11381 11205 11206    1
 11382 11205 11525    1
 11383 11205 11526    1
 11384 11206 11207    1
 11385 11206 11218    1
 11386 11206 11527    1
 11387 11207 11528    1
 11388 11207 11529    1
 11389 11207 11530    1
 11390 11208 11209    1
 11391 11209 11210    1
 11392 11209 11213    1
 11393 11209 11531    1
 11394 11210 11211    1
 11395 11210 11532    1
 11396 11210 11533    1
 11397 11211 11212    1
 11398 11211 11534    1
 11399 11211 11535    1
 11400 11212 11220    2
 11401 11213 11214    1
 11402 11213 11536    1
 11403 11213 11537    1
 11404 11214 11215    1
 11405 11214 11538    1
 11406 11214 11539    1
 11407 11215 11216    1
 11408 11215 11540    1
 11409 11215 11541    1
 11410 11216 11217    1
 11411 11216 11542    1
 11412 11216 11543    1
 11413 11217 11218    1
 11414 11217 11219    2
 11415 11221 11222    1
 11416 11221 11232    1
 11417 11221 11544    1
 11418 11221 11545    1
 11419 11222 11223    1
 11420 11222 11546    1
 11421 11222 11547    1
 11422 11223 11224    1
 11423 11223 11548    1
 11424 11223 11549    1
 11425 11224 11225    1
 11426 11224 11550    1
 11427 11224 11551    1
 11428 11225 11226    1
 11429 11225 11552    1
 11430 11225 11553    1
 11431 11226 11227    1
 11432 11226 11554    1
 11433 11226 11555    1
 11434 11227 11228    1
 11435 11227 11556    1
 11436 11227 11557    1
 11437 11228 11229    1
 11438 11228 11558    1
 11439 11228 11559    1
 11440 11229 11230    1
 11441 11229 11560    1
 11442 11229 11561    1
 11443 11230 11231    1
 11444 11230 11562    1
 11445 11230 11563    1
 11446 11231 11235    1
 11447 11231 11564    1
 11448 11231 11565    1
 11449 11232 11566    1
 11450 11232 11567    1
 11451 11232 11568    1
 11452 11233 11234    1
 11453 11233 11237    1
 11454 11233 11238    1
 11455 11233 11569    1
 11456 11234 11235    1
 11457 11234 11236    2
 11458 11237 11570    1
 11459 11237 11571    1
 11460 11237 11572    1
 11461 11238 11573    1
 11462 11238 11574    1
 11463 11239 11575    1
 11464 11239 11576    1
 11465 11239 11577    1
 11466 11240 11242    2
 11467 11241 11242    1
 11468 11241 11578    1
 11469 11242 11243    1
 11470 11243 11244    1
 11471 11243 11579    1
 11472 11243 11580    1
 11473 11244 11245    1
 11474 11244 11581    1
 11475 11244 11582    1
 11476 11245 11246    1
 11477 11245 11583    1
 11478 11245 11584    1
 11479 11246 11271    1
 11480 11246 11585    1
 11481 11246 11586    1
 11482 11247 11248    1
 11483 11247 11303    1
 11484 11248 11249    1
 11485 11248 11587    1
 11486 11248 11588    1
 11487 11249 11271    1
 11488 11249 11589    1
 11489 11249 11590    1
 11490 11250 11251    1
 11491 11250 11254    2
 11492 11250 11255    1
 11493 11251 11252    1
 11494 11251 11253    1
 11495 11251 11334    1
 11496 11252 11333    1
 11497 11252 11591    1
 11498 11252 11592    1
 11499 11253 11593    1
 11500 11253 11594    1
 11501 11253 11595    1
 11502 11255 11256    1
 11503 11256 11257    1
 11504 11256 11596    1
 11505 11256 11597    1
 11506 11257 11258    1
 11507 11257 11268    1
 11508 11257 11598    1
 11509 11258 11599    1
 11510 11258 11600    1
 11511 11258 11601    1
 11512 11259 11260    1
 11513 11259 11263    1
 11514 11259 11315    1
 11515 11259 11602    1
 11516 11260 11261    1
 11517 11260 11603    1
 11518 11260 11604    1
 11519 11261 11262    1
 11520 11261 11605    1
 11521 11261 11606    1
 11522 11262 11293    1
 11523 11263 11264    1
 11524 11263 11607    1
 11525 11263 11608    1
 11526 11264 11265    1
 11527 11264 11609    1
 11528 11264 11610    1
 11529 11265 11266    1
 11530 11265 11611    1
 11531 11265 11612    1
 11532 11266 11267    1
 11533 11266 11613    1
 11534 11266 11614    1
 11535 11267 11268    1
 11536 11267 11269    2
 11537 11270 11271    1
 11538 11270 11272    1
 11539 11271 11615    1
 11540 11272 11616    1
 11541 11272 11617    1
 11542 11272 11618    1
 11543 11273 11274    1
 11544 11273 11277    2
 11545 11273 11278    1
 11546 11274 11275    2
 11547 11274 11276    1
 11548 11275 11619    1
 11549 11275 11620    1
 11550 11276 11621    1
 11551 11276 11622    1
 11552 11276 11623    1
 11553 11278 11279    1
 11554 11279 11280    1
 11555 11279 11624    1
 11556 11279 11625    1
 11557 11280 11281    1
 11558 11280 11291    1
 11559 11280 11626    1
 11560 11281 11627    1
 11561 11281 11628    1
 11562 11281 11629    1
 11563 11282 11283    1
 11564 11282 11286    1
 11565 11282 11293    1
 11566 11282 11630    1
 11567 11283 11284    1
 11568 11283 11631    1
 11569 11283 11632    1
 11570 11284 11285    1
 11571 11284 11633    1
 11572 11284 11634    1
 11573 11286 11287    1
 11574 11286 11635    1
 11575 11286 11636    1
 11576 11287 11288    1
 11577 11287 11637    1
 11578 11287 11638    1
 11579 11288 11289    1
 11580 11288 11639    1
 11581 11288 11640    1
 11582 11289 11290    1
 11583 11289 11641    1
 11584 11289 11642    1
 11585 11290 11291    1
 11586 11290 11292    2
 11587 11294 11295    1
 11588 11294 11298    2
 11589 11294 11299    1
 11590 11295 11296    2
 11591 11295 11297    1
 11592 11296 11643    1
 11593 11296 11644    1
 11594 11297 11645    1
 11595 11297 11646    1
 11596 11297 11647    1
 11597 11299 11300    1
 11598 11300 11301    1
 11599 11300 11648    1
 11600 11300 11649    1
 11601 11301 11302    1
 11602 11301 11313    1
 11603 11301 11650    1
 11604 11302 11651    1
 11605 11302 11652    1
 11606 11302 11653    1
 11607 11303 11304    1
 11608 11304 11305    1
 11609 11304 11308    1
 11610 11304 11654    1
 11611 11305 11306    1
 11612 11305 11655    1
 11613 11305 11656    1
 11614 11306 11307    1
 11615 11306 11657    1
 11616 11306 11658    1
 11617 11307 11315    1
 11618 11308 11309    1
 11619 11308 11659    1
 11620 11308 11660    1
 11621 11309 11310    1
 11622 11309 11661    1
 11623 11309 11662    1
 11624 11310 11311    1
 11625 11310 11663    1
 11626 11310 11664    1
 11627 11311 11312    1
 11628 11311 11665    1
 11629 11311 11666    1
 11630 11312 11313    1
 11631 11312 11314    2
 11632 11316 11317    1
 11633 11316 11327    1
 11634 11316 11667    1
 11635 11316 11668    1
 11636 11317 11318    1
 11637 11317 11669    1
 11638 11317 11670    1
 11639 11318 11319    1
 11640 11318 11671    1
 11641 11318 11672    1
 11642 11319 11320    1
 11643 11319 11673    1
 11644 11319 11674    1
 11645 11320 11321    1
 11646 11320 11675    1
 11647 11320 11676    1
 11648 11321 11322    1
 11649 11321 11677    1
 11650 11321 11678    1
 11651 11322 11323    1
 11652 11322 11679    1
 11653 11322 11680    1
 11654 11323 11324    1
 11655 11323 11681    1
 11656 11323 11682    1
 11657 11324 11325    1
 11658 11324 11683    1
 11659 11324 11684    1
 11660 11325 11326    1
 11661 11325 11685    1
 11662 11325 11686    1
 11663 11326 11330    1
 11664 11326 11687    1
 11665 11326 11688    1
 11666 11327 11689    1
 11667 11327 11690    1
 11668 11327 11691    1
 11669 11328 11329    1
 11670 11328 11332    1
 11671 11328 11333    1
 11672 11328 11692    1
 11673 11329 11330    1
 11674 11329 11331    2
 11675 11332 11693    1
 11676 11332 11694    1
 11677 11332 11695    1
 11678 11333 11696    1
 11679 11333 11697    1
 11680 11334 11698    1
 11681 11334 11699    1
 11682 11334 11700    1
 11683 11701 11703    2
 11684 11702 11703    1
 11685 11702 11985    1
 11686 11703 11704    1
 11687 11704 11705    1
 11688 11704 11986    1
 11689 11704 11987    1
 11690 11705 11706    1
 11691 11705 11988    1
 11692 11705 11989    1
 11693 11706 11707    1
 11694 11706 11990    1
 11695 11706 11991    1
 11696 11707 11731    1
 11697 11707 11992    1
 11698 11707 11993    1
 11699 11708 11709    1
 11700 11708 11763    2
 11701 11709 11710    1
 11702 11709 11994    1
 11703 11709 11995    1
 11704 11710 11731    1
 11705 11710 11996    1
 11706 11710 11997    1
 11707 11711 11712    1
 11708 11711 11715    2
 11709 11711 11716    1
 11710 11712 11713    1
 11711 11712 11714    1
 11712 11712 11794    1
 11713 11713 11793    1
 11714 11713 11998    1
 11715 11713 11999    1
 11716 11714 12000    1
 11717 11714 12001    1
 11718 11714 12002    1
 11719 11716 11717    1
 11720 11717 11718    1
 11721 11717 12003    1
 11722 11717 12004    1
 11723 11718 11719    1
 11724 11718 11729    1
 11725 11718 12005    1
 11726 11719 12006    1
 11727 11719 12007    1
 11728 11719 12008    1
 11729 11720 11721    1
 11730 11720 11724    1
 11731 11720 11775    1
 11732 11720 12009    1
 11733 11721 11722    1
 11734 11721 12010    1
 11735 11721 12011    1
 11736 11722 11723    1
 11737 11722 12012    1
 11738 11722 12013    1
 11739 11723 11753    1
 11740 11724 11725    1
 11741 11724 12014    1
 11742 11724 12015    1
 11743 11725 11726    1
 11744 11725 12016    1
 11745 11725 12017    1
 11746 11726 11727    1
 11747 11726 12018    1
 11748 11726 12019    1
 11749 11727 11728    1
 11750 11727 12020    1
 11751 11727 12021    1
 11752 11728 11729    1
 11753 11728 11730    2
 11754 11731 11847    1
 11755 11731 12022    1
 11756 11732 11733    1
 11757 11732 11736    2
 11758 11732 11737    1
 11759 11733 11734    2
 11760 11733 11735    1
 11761 11734 12023    1
 11762 11734 12024    1
 11763 11735 12025    1
 11764 11735 12026    1
 11765 11735 12027    1
 11766 11737 11738    1
 11767 11738 11739    1
 11768 11738 12028    1
 11769 11738 12029    1
 11770 11739 11740    1
 11771 11739 11750    1
 11772 11739 12030    1
 11773 11740 12031    1
 11774 11740 12032    1
 11775 11740 12033    1
 11776 11741 11742    1
 11777 11741 11745    1
 11778 11741 11753    1
 11779 11741 12034    1
 11780 11742 11743    1
 11781 11742 12035    1
 11782 11742 12036    1
 11783 11743 11744    1
 11784 11743 12037    1
 11785 11743 12038    1
 11786 11744 11752    1
 11787 11745 11746    1
 11788 11745 12039    1
 11789 11745 12040    1
 11790 11746 11747    1
 11791 11746 12041    1
 11792 11746 12042    1
 11793 11747 11748    1
 11794 11747 12043    1
 11795 11747 12044    1
 11796 11748 11749    1
 11797 11748 12045    1
 11798 11748 12046    1
 11799 11749 11750    1
 11800 11749 11751    2
 11801 11752 12047    1
 11802 11752 12048    1
 11803 11752 12049    1
 11804 11754 11755    1
 11805 11754 11758    2
 11806 11754 11759    1
 11807 11755 11756    2
 11808 11755 11757    1
 11809 11756 12050    1
 11810 11756 12051    1
 11811 11757 12052    1
 11812 11757 12053    1
 11813 11757 12054    1
 11814 11759 11760    1
 11815 11760 11761    1
 11816 11760 12055    1
 11817 11760 12056    1
 11818 11761 11762    1
 11819 11761 11773    1
 11820 11761 12057    1
 11821 11762 12058    1
 11822 11762 12059    1
 11823 11762 12060    1
 11824 11763 11764    1
 11825 11764 11765    1
 11826 11764 11768    1
 11827 11764 12061    1
 11828 11765 11766    1
 11829 11765 12062    1
 11830 11765 12063    1
 11831 11766 11767    1
 11832 11766 12064    1
 11833 11766 12065    1
 11834 11767 11775    1
 11835 11768 11769    1
 11836 11768 12066    1
 11837 11768 12067    1
 11838 11769 11770    1
 11839 11769 12068    1
 11840 11769 12069    1
 11841 11770 11771    1
 11842 11770 12070    1
 11843 11770 12071    1
 11844 11771 11772    1
 11845 11771 12072    1
 11846 11771 12073    1
 11847 11772 11773    1
 11848 11772 11774    2
 11849 11776 11777    1
 11850 11776 11787    1
 11851 11776 12074    1
 11852 11776 12075    1
 11853 11777 11778    1
 11854 11777 12076    1
 11855 11777 12077    1
 11856 11778 11779    1
 11857 11778 12078    1
 11858 11778 12079    1
 11859 11779 11780    1
 11860 11779 12080    1
 11861 11779 12081    1
 11862 11780 11781    1
 11863 11780 12082    1
 11864 11780 12083    1
 11865 11781 11782    1
 11866 11781 12084    1
 11867 11781 12085    1
 11868 11782 11783    1
 11869 11782 12086    1
 11870 11782 12087    1
 11871 11783 11784    1
 11872 11783 12088    1
 11873 11783 12089    1
 11874 11784 11785    1
 11875 11784 12090    1
 11876 11784 12091    1
 11877 11785 11786    1
 11878 11785 12092    1
 11879 11785 12093    1
 11880 11786 11790    1
 11881 11786 12094    1
 11882 11786 12095    1
 11883 11787 12096    1
 11884 11787 12097    1
 11885 11787 12098    1
 11886 11788 11789    1
 11887 11788 11792    1
 11888 11788 11793    1
 11889 11788 12099    1
 11890 11789 11790    1
 11891 11789 11791    2
 11892 11792 12100    1
 11893 11792 12101    1
 11894 11792 12102    1
 11895 11793 12103    1
 11896 11793 12104    1
 11897 11794 12105    1
 11898 11794 12106    1
 11899 11794 12107    1
 11900 11795 11797    2
 11901 11796 11797    1
 11902 11796 12108    1
 11903 11797 11798    1
 11904 11798 11799    1
 11905 11798 12109    1
 11906 11798 12110    1
 11907 11799 11800    1
 11908 11799 12111    1
 11909 11799 12112    1
 11910 11800 11801    1
 11911 11800 12113    1
 11912 11800 12114    1
 11913 11801 11826    1
 11914 11801 12115    1
 11915 11801 12116    1
 11916 11802 11803    1
 11917 11802 11858    1
 11918 11803 11804    1
 11919 11803 12117    1
 11920 11803 12118    1
 11921 11804 11826    1
 11922 11804 12119    1
 11923 11804 12120    1
 11924 11805 11806    1
 11925 11805 11809    2
 11926 11805 11810    1
 11927 11806 11807    1
 11928 11806 11808    1
 11929 11806 11889    1
 11930 11807 11888    1
 11931 11807 12121    1
 11932 11807 12122    1
 11933 11808 12123    1
 11934 11808 12124    1
 11935 11808 12125    1
 11936 11810 11811    1
 11937 11811 11812    1
 11938 11811 12126    1
 11939 11811 12127    1
 11940 11812 11813    1
 11941 11812 11823    1
 11942 11812 12128    1
 11943 11813 12129    1
 11944 11813 12130    1
 11945 11813 12131    1
 11946 11814 11815    1
 11947 11814 11818    1
 11948 11814 11870    1
 11949 11814 12132    1
 11950 11815 11816    1
 11951 11815 12133    1
 11952 11815 12134    1
 11953 11816 11817    1
 11954 11816 12135    1
 11955 11816 12136    1
 11956 11817 11848    1
 11957 11818 11819    1
 11958 11818 12137    1
 11959 11818 12138    1
 11960 11819 11820    1
 11961 11819 12139    1
 11962 11819 12140    1
 11963 11820 11821    1
 11964 11820 12141    1
 11965 11820 12142    1
 11966 11821 11822    1
 11967 11821 12143    1
 11968 11821 12144    1
 11969 11822 11823    1
 11970 11822 11824    2
 11971 11825 11826    1
 11972 11825 11935    1
 11973 11826 12145    1
 11974 11827 11828    1
 11975 11827 11831    2
 11976 11827 11832    1
 11977 11828 11829    2
 11978 11828 11830    1
 11979 11829 12146    1
 11980 11829 12147    1
 11981 11830 12148    1
 11982 11830 12149    1
 11983 11830 12150    1
 11984 11832 11833    1
 11985 11833 11834    1
 11986 11833 12151    1
 11987 11833 12152    1
 11988 11834 11835    1
 11989 11834 11845    1
 11990 11834 12153    1
 11991 11835 12154    1
 11992 11835 12155    1
 11993 11835 12156    1
 11994 11836 11837    1
 11995 11836 11840    1
 11996 11836 11848    1
 11997 11836 12157    1
 11998 11837 11838    1
 11999 11837 12158    1
 12000 11837 12159    1
 12001 11838 11839    1
 12002 11838 12160    1
 12003 11838 12161    1
 12004 11839 11847    1
 12005 11840 11841    1
 12006 11840 12162    1
 12007 11840 12163    1
 12008 11841 11842    1
 12009 11841 12164    1
 12010 11841 12165    1
 12011 11842 11843    1
 12012 11842 12166    1
 12013 11842 12167    1
 12014 11843 11844    1
 12015 11843 12168    1
 12016 11843 12169    1
 12017 11844 11845    1
 12018 11844 11846    2
 12019 11849 11850    1
 12020 11849 11853    2
 12021 11849 11854    1
 12022 11850 11851    2
 12023 11850 11852    1
 12024 11851 12170    1
 12025 11851 12171    1
 12026 11852 12172    1
 12027 11852 12173    1
 12028 11852 12174    1
 12029 11854 11855    1
 12030 11855 11856    1
 12031 11855 12175    1
 12032 11855 12176    1
 12033 11856 11857    1
 12034 11856 11868    1
 12035 11856 12177    1
 12036 11857 12178    1
 12037 11857 12179    1
 12038 11857 12180    1
 12039 11858 11859    1
 12040 11859 11860    1
 12041 11859 11863    1
 12042 11859 12181    1
 12043 11860 11861    1
 12044 11860 12182    1
 12045 11860 12183    1
 12046 11861 11862    1
 12047 11861 12184    1
 12048 11861 12185    1
 12049 11862 11870    2
 12050 11863 11864    1
 12051 11863 12186    1
 12052 11863 12187    1
 12053 11864 11865    1
 12054 11864 12188    1
 12055 11864 12189    1
 12056 11865 11866    1
 12057 11865 12190    1
 12058 11865 12191    1
 12059 11866 11867    1
 12060 11866 12192    1
 12061 11866 12193    1
 12062 11867 11868    1
 12063 11867 11869    2
 12064 11871 11872    1
 12065 11871 11882    1
 12066 11871 12194    1
 12067 11871 12195    1
 12068 11872 11873    1
 12069 11872 12196    1
 12070 11872 12197    1
 12071 11873 11874    1
 12072 11873 12198    1
 12073 11873 12199    1
 12074 11874 11875    1
 12075 11874 12200    1
 12076 11874 12201    1
 12077 11875 11876    1
 12078 11875 12202    1
 12079 11875 12203    1
 12080 11876 11877    1
 12081 11876 12204    1
 12082 11876 12205    1
 12083 11877 11878    1
 12084 11877 12206    1
 12085 11877 12207    1
 12086 11878 11879    1
 12087 11878 12208    1
 12088 11878 12209    1
 12089 11879 11880    1
 12090 11879 12210    1
 12091 11879 12211    1
 12092 11880 11881    1
 12093 11880 12212    1
 12094 11880 12213    1
 12095 11881 11885    1
 12096 11881 12214    1
 12097 11881 12215    1
 12098 11882 12216    1
 12099 11882 12217    1
 12100 11882 12218    1
 12101 11883 11884    1
 12102 11883 11887    1
 12103 11883 11888    1
 12104 11883 12219    1
 12105 11884 11885    1
 12106 11884 11886    2
 12107 11887 12220    1
 12108 11887 12221    1
 12109 11887 12222    1
 12110 11888 12223    1
 12111 11888 12224    1
 12112 11889 12225    1
 12113 11889 12226    1
 12114 11889 12227    1
 12115 11890 11892    2
 12116 11891 11892    1
 12117 11891 12228    1
 12118 11892 11893    1
 12119 11893 11894    1
 12120 11893 12229    1
 12121 11893 12230    1
 12122 11894 11895    1
 12123 11894 12231    1
 12124 11894 12232    1
 12125 11895 11896    1
 12126 11895 12233    1
 12127 11895 12234    1
 12128 11896 11921    1
 12129 11896 12235    1
 12130 11896 12236    1
 12131 11897 11898    1
 12132 11897 11953    1
 12133 11898 11899    1
 12134 11898 12237    1
 12135 11898 12238    1
 12136 11899 11921    1
 12137 11899 12239    1
 12138 11899 12240    1
 12139 11900 11901    1
 12140 11900 11904    2
 12141 11900 11905    1
 12142 11901 11902    1
 12143 11901 11903    1
 12144 11901 11984    1
 12145 11902 11983    1
 12146 11902 12241    1
 12147 11902 12242    1
 12148 11903 12243    1
 12149 11903 12244    1
 12150 11903 12245    1
 12151 11905 11906    1
 12152 11906 11907    1
 12153 11906 12246    1
 12154 11906 12247    1
 12155 11907 11908    1
 12156 11907 11918    1
 12157 11907 12248    1
 12158 11908 12249    1
 12159 11908 12250    1
 12160 11908 12251    1
 12161 11909 11910    1
 12162 11909 11913    1
 12163 11909 11965    1
 12164 11909 12252    1
 12165 11910 11911    1
 12166 11910 12253    1
 12167 11910 12254    1
 12168 11911 11912    1
 12169 11911 12255    1
 12170 11911 12256    1
 12171 11912 11943    1
 12172 11913 11914    1
 12173 11913 12257    1
 12174 11913 12258    1
 12175 11914 11915    1
 12176 11914 12259    1
 12177 11914 12260    1
 12178 11915 11916    1
 12179 11915 12261    1
 12180 11915 12262    1
 12181 11916 11917    1
 12182 11916 12263    1
 12183 11916 12264    1
 12184 11917 11918    1
 12185 11917 11919    2
 12186 11920 11921    1
 12187 11920 11922    1
 12188 11921 12265    1
 12189 11922 12266    1
 12190 11922 12267    1
 12191 11922 12268    1
 12192 11923 11924    1
 12193 11923 11927    2
 12194 11923 11928    1
 12195 11924 11925    2
 12196 11924 11926    1
 12197 11925 12269    1
 12198 11925 12270    1
 12199 11926 12271    1
 12200 11926 12272    1
 12201 11926 12273    1
 12202 11928 11929    1
 12203 11929 11930    1
 12204 11929 12274    1
 12205 11929 12275    1
 12206 11930 11931    1
 12207 11930 11941    1
 12208 11930 12276    1
 12209 11931 12277    1
 12210 11931 12278    1
 12211 11931 12279    1
 12212 11932 11933    1
 12213 11932 11936    1
 12214 11932 11943    1
 12215 11932 12280    1
 12216 11933 11934    1
 12217 11933 12281    1
 12218 11933 12282    1
 12219 11934 11935    1
 12220 11934 12283    1
 12221 11934 12284    1
 12222 11936 11937    1
 12223 11936 12285    1
 12224 11936 12286    1
 12225 11937 11938    1
 12226 11937 12287    1
 12227 11937 12288    1
 12228 11938 11939    1
 12229 11938 12289    1
 12230 11938 12290    1
 12231 11939 11940    1
 12232 11939 12291    1
 12233 11939 12292    1
 12234 11940 11941    1
 12235 11940 11942    2
 12236 11944 11945    1
 12237 11944 11948    2
 12238 11944 11949    1
 12239 11945 11946    2
 12240 11945 11947    1
 12241 11946 12293    1
 12242 11946 12294    1
 12243 11947 12295    1
 12244 11947 12296    1
 12245 11947 12297    1
 12246 11949 11950    1
 12247 11950 11951    1
 12248 11950 12298    1
 12249 11950 12299    1
 12250 11951 11952    1
 12251 11951 11963    1
 12252 11951 12300    1
 12253 11952 12301    1
 12254 11952 12302    1
 12255 11952 12303    1
 12256 11953 11954    1
 12257 11954 11955    1
 12258 11954 11958    1
 12259 11954 12304    1
 12260 11955 11956    1
 12261 11955 12305    1
 12262 11955 12306    1
 12263 11956 11957    1
 12264 11956 12307    1
 12265 11956 12308    1
 12266 11957 11965    1
 12267 11958 11959    1
 12268 11958 12309    1
 12269 11958 12310    1
 12270 11959 11960    1
 12271 11959 12311    1
 12272 11959 12312    1
 12273 11960 11961    1
 12274 11960 12313    1
 12275 11960 12314    1
 12276 11961 11962    1
 12277 11961 12315    1
 12278 11961 12316    1
 12279 11962 11963    1
 12280 11962 11964    2
 12281 11966 11967    1
 12282 11966 11977    1
 12283 11966 12317    1
 12284 11966 12318    1
 12285 11967 11968    1
 12286 11967 12319    1
 12287 11967 12320    1
 12288 11968 11969    1
 12289 11968 12321    1
 12290 11968 12322    1
 12291 11969 11970    1
 12292 11969 12323    1
 12293 11969 12324    1
 12294 11970 11971    1
 12295 11970 12325    1
 12296 11970 12326    1
 12297 11971 11972    1
 12298 11971 12327    1
 12299 11971 12328    1
 12300 11972 11973    1
 12301 11972 12329    1
 12302 11972 12330    1
 12303 11973 11974    1
 12304 11973 12331    1
 12305 11973 12332    1
 12306 11974 11975    1
 12307 11974 12333    1
 12308 11974 12334    1
 12309 11975 11976    1
 12310 11975 12335    1
 12311 11975 12336    1
 12312 11976 11980    1
 12313 11976 12337    1
 12314 11976 12338    1
 12315 11977 12339    1
 12316 11977 12340    1
 12317 11977 12341    1
 12318 11978 11979    1
 12319 11978 11982    1
 12320 11978 11983    1
 12321 11978 12342    1
 12322 11979 11980    1
 12323 11979 11981    2
 12324 11982 12343    1
 12325 11982 12344    1
 12326 11982 12345    1
 12327 11983 12346    1
 12328 11983 12347    1
 12329 11984 12348    1
 12330 11984 12349    1
 12331 11984 12350    1
 12332 12351 12353    2
 12333 12352 12353    1
 12334 12352 12635    1
 12335 12353 12354    1
 12336 12354 12355    1
 12337 12354 12636    1
 12338 12354 12637    1
 12339 12355 12356    1
 12340 12355 12638    1
 12341 12355 12639    1
 12342 12356 12357    1
 12343 12356 12640    1
 12344 12356 12641    1
 12345 12357 12381    1
 12346 12357 12642    1
 12347 12357 12643    1
 12348 12358 12359    1
 12349 12358 12413    2
 12350 12359 12360    1
 12351 12359 12644    1
 12352 12359 12645    1
 12353 12360 12381    1
 12354 12360 12646    1
 12355 12360 12647    1
 12356 12361 12362    1
 12357 12361 12365    2
 12358 12361 12366    1
 12359 12362 12363    1
 12360 12362 12364    1
 12361 12362 12444    1
 12362 12363 12443    1
 12363 12363 12648    1
 12364 12363 12649    1
 12365 12364 12650    1
 12366 12364 12651    1
 12367 12364 12652    1
 12368 12366 12367    1
 12369 12367 12368    1
 12370 12367 12653    1
 12371 12367 12654    1
 12372 12368 12369    1
 12373 12368 12379    1
 12374 12368 12655    1
 12375 12369 12656    1
 12376 12369 12657    1
 12377 12369 12658    1
 12378 12370 12371    1
 12379 12370 12374    1
 12380 12370 12425    1
 12381 12370 12659    1
 12382 12371 12372    1
 12383 12371 12660    1
 12384 12371 12661    1
 12385 12372 12373    1
 12386 12372 12662    1
 12387 12372 12663    1
 12388 12373 12403    1
 12389 12374 12375    1
 12390 12374 12664    1
 12391 12374 12665    1
 12392 12375 12376    1
 12393 12375 12666    1
 12394 12375 12667    1
 12395 12376 12377    1
 12396 12376 12668    1
 12397 12376 12669    1
 12398 12377 12378    1
 12399 12377 12670    1
 12400 12377 12671    1
 12401 12378 12379    1
 12402 12378 12380    2
 12403 12381 12497    1
 12404 12381 12672    1
 12405 12382 12383    1
 12406 12382 12386    2
 12407 12382 12387    1
 12408 12383 12384    2
 12409 12383 12385    1
 12410 12384 12673    1
 12411 12384 12674    1
 12412 12385 12675    1
 12413 12385 12676    1
 12414 12385 12677    1
 12415 12387 12388    1
 12416 12388 12389    1
 12417 12388 12678    1
 12418 12388 12679    1
 12419 12389 12390    1
 12420 12389 12400    1
 12421 12389 12680    1
 12422 12390 12681    1
 12423 12390 12682    1
 12424 12390 12683    1
 12425 12391 12392    1
 12426 12391 12395    1
 12427 12391 12403    1
 12428 12391 12684    1
 12429 12392 12393    1
 12430 12392 12685    1
 12431 12392 12686    1
 12432 12393 12394    1
 12433 12393 12687    1
 12434 12393 12688    1
 12435 12394 12402    1
 12436 12395 12396    1
 12437 12395 12689    1
 12438 12395 12690    1
 12439 12396 12397    1
 12440 12396 12691    1
 12441 12396 12692    1
 12442 12397 12398    1
 12443 12397 12693    1
 12444 12397 12694    1
 12445 12398 12399    1
 12446 12398 12695    1
 12447 12398 12696    1
 12448 12399 12400    1
 12449 12399 12401    2
 12450 12402 12697    1
 12451 12402 12698    1
 12452 12402 12699    1
 12453 12404 12405    1
 12454 12404 12408    2
 12455 12404 12409    1
 12456 12405 12406    2
 12457 12405 12407    1
 12458 12406 12700    1
 12459 12406 12701    1
 12460 12407 12702    1
 12461 12407 12703    1
 12462 12407 12704    1
 12463 12409 12410    1
 12464 12410 12411    1
 12465 12410 12705    1
 12466 12410 12706    1
 12467 12411 12412    1
 12468 12411 12423    1
 12469 12411 12707    1
 12470 12412 12708    1
 12471 12412 12709    1
 12472 12412 12710    1
 12473 12413 12414    1
 12474 12414 12415    1
 12475 12414 12418    1
 12476 12414 12711    1
 12477 12415 12416    1
 12478 12415 12712    1
 12479 12415 12713    1
 12480 12416 12417    1
 12481 12416 12714    1
 12482 12416 12715    1
 12483 12417 12425    1
 12484 12418 12419    1
 12485 12418 12716    1
 12486 12418 12717    1
 12487 12419 12420    1
 12488 12419 12718    1
 12489 12419 12719    1
 12490 12420 12421    1
 12491 12420 12720    1
 12492 12420 12721    1
 12493 12421 12422    1
 12494 12421 12722    1
 12495 12421 12723    1
 12496 12422 12423    1
 12497 12422 12424    2
 12498 12426 12427    1
 12499 12426 12437    1
 12500 12426 12724    1
 12501 12426 12725    1
 12502 12427 12428    1
 12503 12427 12726    1
 12504 12427 12727    1
 12505 12428 12429    1
 12506 12428 12728    1
 12507 12428 12729    1
 12508 12429 12430    1
 12509 12429 12730    1
 12510 12429 12731    1
 12511 12430 12431    1
 12512 12430 12732    1
 12513 12430 12733    1
 12514 12431 12432    1
 12515 12431 12734    1
 12516 12431 12735    1
 12517 12432 12433    1
 12518 12432 12736    1
 12519 12432 12737    1
 12520 12433 12434    1
 12521 12433 12738    1
 12522 12433 12739    1
 12523 12434 12435    1
 12524 12434 12740    1
 12525 12434 12741    1
 12526 12435 12436    1
 12527 12435 12742    1
 12528 12435 12743    1
 12529 12436 12440    1
 12530 12436 12744    1
 12531 12436 12745    1
 12532 12437 12746    1
 12533 12437 12747    1
 12534 12437 12748    1
 12535 12438 12439    1
 12536 12438 12442    1
 12537 12438 12443    1
 12538 12438 12749    1
 12539 12439 12440    1
 12540 12439 12441    2
 12541 12442 12750    1
 12542 12442 12751    1
 12543 12442 12752    1
 12544 12443 12753    1
 12545 12443 12754    1
 12546 12444 12755    1
 12547 12444 12756    1
 12548 12444 12757    1
 12549 12445 12447    2
 12550 12446 12447    1
 12551 12446 12758    1
 12552 12447 12448    1
 12553 12448 12449    1
 12554 12448 12759    1
 12555 12448 12760    1
 12556 12449 12450    1
 12557 12449 12761    1
 12558 12449 12762    1
 12559 12450 12451    1
 12560 12450 12763    1
 12561 12450 12764    1
 12562 12451 12476    1
 12563 12451 12765    1
 12564 12451 12766    1
 12565 12452 12453    1
 12566 12452 12508    1
 12567 12453 12454    1
 12568 12453 12767    1
 12569 12453 12768    1
 12570 12454 12476    1
 12571 12454 12769    1
 12572 12454 12770    1
 12573 12455 12456    1
 12574 12455 12459    2
 12575 12455 12460    1
 12576 12456 12457    1
 12577 12456 12458    1
 12578 12456 12539    1
 12579 12457 12538    1
 12580 12457 12771    1
 12581 12457 12772    1
 12582 12458 12773    1
 12583 12458 12774    1
 12584 12458 12775    1
 12585 12460 12461    1
 12586 12461 12462    1
 12587 12461 12776    1
 12588 12461 12777    1
 12589 12462 12463    1
 12590 12462 12473    1
 12591 12462 12778    1
 12592 12463 12779    1
 12593 12463 12780    1
 12594 12463 12781    1
 12595 12464 12465    1
 12596 12464 12468    1
 12597 12464 12520    1
 12598 12464 12782    1
 12599 12465 12466    1
 12600 12465 12783    1
 12601 12465 12784    1
 12602 12466 12467    1
 12603 12466 12785    1
 12604 12466 12786    1
 12605 12467 12498    1
 12606 12468 12469    1
 12607 12468 12787    1
 12608 12468 12788    1
 12609 12469 12470    1
 12610 12469 12789    1
 12611 12469 12790    1
 12612 12470 12471    1
 12613 12470 12791    1
 12614 12470 12792    1
 12615 12471 12472    1
 12616 12471 12793    1
 12617 12471 12794    1
 12618 12472 12473    1
 12619 12472 12474    2
 12620 12475 12476    1
 12621 12475 12585    1
 12622 12476 12795    1
 12623 12477 12478    1
 12624 12477 12481    2
 12625 12477 12482    1
 12626 12478 12479    2
 12627 12478 12480    1
 12628 12479 12796    1
 12629 12479 12797    1
 12630 12480 12798    1
 12631 12480 12799    1
 12632 12480 12800    1
 12633 12482 12483    1
 12634 12483 12484    1
 12635 12483 12801    1
 12636 12483 12802    1
 12637 12484 12485    1
 12638 12484 12495    1
 12639 12484 12803    1
 12640 12485 12804    1
 12641 12485 12805    1
 12642 12485 12806    1
 12643 12486 12487    1
 12644 12486 12490    1
 12645 12486 12498    1
 12646 12486 12807    1
 12647 12487 12488    1
 12648 12487 12808    1
 12649 12487 12809    1
 12650 12488 12489    1
 12651 12488 12810    1
 12652 12488 12811    1
 12653 12489 12497    1
 12654 12490 12491    1
 12655 12490 12812    1
 12656 12490 12813    1
 12657 12491 12492    1
 12658 12491 12814    1
 12659 12491 12815    1
 12660 12492 12493    1
 12661 12492 12816    1
 12662 12492 12817    1
 12663 12493 12494    1
 12664 12493 12818    1
 12665 12493 12819    1
 12666 12494 12495    1
 12667 12494 12496    2
 12668 12499 12500    1
 12669 12499 12503    2
 12670 12499 12504    1
 12671 12500 12501    2
 12672 12500 12502    1
 12673 12501 12820    1
 12674 12501 12821    1
 12675 12502 12822    1
 12676 12502 12823    1
 12677 12502 12824    1
 12678 12504 12505    1
 12679 12505 12506    1
 12680 12505 12825    1
 12681 12505 12826    1
 12682 12506 12507    1
 12683 12506 12518    1
 12684 12506 12827    1
 12685 12507 12828    1
 12686 12507 12829    1
 12687 12507 12830    1
 12688 12508 12509    1
 12689 12509 12510    1
 12690 12509 12513    1
 12691 12509 12831    1
 12692 12510 12511    1
 12693 12510 12832    1
 12694 12510 12833    1
 12695 12511 12512    1
 12696 12511 12834    1
 12697 12511 12835    1
 12698 12512 12520    2
 12699 12513 12514    1
 12700 12513 12836    1
 12701 12513 12837    1
 12702 12514 12515    1
 12703 12514 12838    1
 12704 12514 12839    1
 12705 12515 12516    1
 12706 12515 12840    1
 12707 12515 12841    1
 12708 12516 12517    1
 12709 12516 12842    1
 12710 12516 12843    1
 12711 12517 12518    1
 12712 12517 12519    2
 12713 12521 12522    1
 12714 12521 12532    1
 12715 12521 12844    1
 12716 12521 12845    1
 12717 12522 12523    1
 12718 12522 12846    1
 12719 12522 12847    1
 12720 12523 12524    1
 12721 12523 12848    1
 12722 12523 12849    1
 12723 12524 12525    1
 12724 12524 12850    1
 12725 12524 12851    1
 12726 12525 12526    1
 12727 12525 12852    1
 12728 12525 12853    1
 12729 12526 12527    1
 12730 12526 12854    1
 12731 12526 12855    1
 12732 12527 12528    1
 12733 12527 12856    1
 12734 12527 12857    1
 12735 12528 12529    1
 12736 12528 12858    1
 12737 12528 12859    1
 12738 12529 12530    1
 12739 12529 12860    1
 12740 12529 12861    1
 12741 12530 12531    1
 12742 12530 12862    1
 12743 12530 12863    1
 12744 12531 12535    1
 12745 12531 12864    1
 12746 12531 12865    1
 12747 12532 12866    1
 12748 12532 12867    1
 12749 12532 12868    1
 12750 12533 12534    1
 12751 12533 12537    1
 12752 12533 12538    1
 12753 12533 12869    1
 12754 12534 12535    1
 12755 12534 12536    2
 12756 12537 12870    1
 12757 12537 12871    1
 12758 12537 12872    1
 12759 12538 12873    1
 12760 12538 12874    1
 12761 12539 12875    1
 12762 12539 12876    1
 12763 12539 12877    1
 12764 12540 12542    2
 12765 12541 12542    1
 12766 12541 12878    1
 12767 12542 12543    1
 12768 12543 12544    1
 12769 12543 12879    1
 12770 12543 12880    1
 12771 12544 12545    1
 12772 12544 12881    1
 12773 12544 12882    1
 12774 12545 12546    1
 12775 12545 12883    1
 12776 12545 12884    1
 12777 12546 12571    1
 12778 12546 12885    1
 12779 12546 12886    1
 12780 12547 12548    1
 12781 12547 12603    1
 12782 12548 12549    1
 12783 12548 12887    1
 12784 12548 12888    1
 12785 12549 12571    1
 12786 12549 12889    1
 12787 12549 12890    1
 12788 12550 12551    1
 12789 12550 12554    2
 12790 12550 12555    1
 12791 12551 12552    1
 12792 12551 12553    1
 12793 12551 12634    1
 12794 12552 12633    1
 12795 12552 12891    1
 12796 12552 12892    1
 12797 12553 12893    1
 12798 12553 12894    1
 12799 12553 12895    1
 12800 12555 12556    1
 12801 12556 12557    1
 12802 12556 12896    1
 12803 12556 12897    1
 12804 12557 12558    1
 12805 12557 12568    1
 12806 12557 12898    1
 12807 12558 12899    1
 12808 12558 12900    1
 12809 12558 12901    1
 12810 12559 12560    1
 12811 12559 12563    1
 12812 12559 12615    1
 12813 12559 12902    1
 12814 12560 12561    1
 12815 12560 12903    1
 12816 12560 12904    1
 12817 12561 12562    1
 12818 12561 12905    1
 12819 12561 12906    1
 12820 12562 12593    1
 12821 12563 12564    1
 12822 12563 12907    1
 12823 12563 12908    1
 12824 12564 12565    1
 12825 12564 12909    1
 12826 12564 12910    1
 12827 12565 12566    1
 12828 12565 12911    1
 12829 12565 12912    1
 12830 12566 12567    1
 12831 12566 12913    1
 12832 12566 12914    1
 12833 12567 12568    1
 12834 12567 12569    2
 12835 12570 12571    1
 12836 12570 12572    1
 12837 12571 12915    1
 12838 12572 12916    1
 12839 12572 12917    1
 12840 12572 12918    1
 12841 12573 12574    1
 12842 12573 12577    2
 12843 12573 12578    1
 12844 12574 12575    2
 12845 12574 12576    1
 12846 12575 12919    1
 12847 12575 12920    1
 12848 12576 12921    1
 12849 12576 12922    1
 12850 12576 12923    1
 12851 12578 12579    1
 12852 12579 12580    1
 12853 12579 12924    1
 12854 12579 12925    1
 12855 12580 12581    1
 12856 12580 12591    1
 12857 12580 12926    1
 12858 12581 12927    1
 12859 12581 12928    1
 12860 12581 12929    1
 12861 12582 12583    1
 12862 12582 12586    1
 12863 12582 12593    1
 12864 12582 12930    1
 12865 12583 12584    1
 12866 12583 12931    1
 12867 12583 12932    1
 12868 12584 12585    1
 12869 12584 12933    1
 12870 12584 12934    1
 12871 12586 12587    1
 12872 12586 12935    1
 12873 12586 12936    1
 12874 12587 12588    1
 12875 12587 12937    1
 12876 12587 12938    1
 12877 12588 12589    1
 12878 12588 12939    1
 12879 12588 12940    1
 12880 12589 12590    1
 12881 12589 12941    1
 12882 12589 12942    1
 12883 12590 12591    1
 12884 12590 12592    2
 12885 12594 12595    1
 12886 12594 12598    2
 12887 12594 12599    1
 12888 12595 12596    2
 12889 12595 12597    1
 12890 12596 12943    1
 12891 12596 12944    1
 12892 12597 12945    1
 12893 12597 12946    1
 12894 12597 12947    1
 12895 12599 12600    1
 12896 12600 12601    1
 12897 12600 12948    1
 12898 12600 12949    1
 12899 12601 12602    1
 12900 12601 12613    1
 12901 12601 12950    1
 12902 12602 12951    1
 12903 12602 12952    1
 12904 12602 12953    1
 12905 12603 12604    1
 12906 12604 12605    1
 12907 12604 12608    1
 12908 12604 12954    1
 12909 12605 12606    1
 12910 12605 12955    1
 12911 12605 12956    1
 12912 12606 12607    1
 12913 12606 12957    1
 12914 12606 12958    1
 12915 12607 12615    1
 12916 12608 12609    1
 12917 12608 12959    1
 12918 12608 12960    1
 12919 12609 12610    1
 12920 12609 12961    1
 12921 12609 12962    1
 12922 12610 12611    1
 12923 12610 12963    1
 12924 12610 12964    1
 12925 12611 12612    1
 12926 12611 12965    1
 12927 12611 12966    1
 12928 12612 12613    1
 12929 12612 12614    2
 12930 12616 12617    1
 12931 12616 12627    1
 12932 12616 12967    1
 12933 12616 12968    1
 12934 12617 12618    1
 12935 12617 12969    1
 12936 12617 12970    1
 12937 12618 12619    1
 12938 12618 12971    1
 12939 12618 12972    1
 12940 12619 12620    1
 12941 12619 12973    1
 12942 12619 12974    1
 12943 12620 12621    1
 12944 12620 12975    1
 12945 12620 12976    1
 12946 12621 12622    1
 12947 12621 12977    1
 12948 12621 12978    1
 12949 12622 12623    1
 12950 12622 12979    1
 12951 12622 12980    1
 12952 12623 12624    1
 12953 12623 12981    1
 12954 12623 12982    1
 12955 12624 12625    1
 12956 12624 12983    1
 12957 12624 12984    1
 12958 12625 12626    1
 12959 12625 12985    1
 12960 12625 12986    1
 12961 12626 12630    1
 12962 12626 12987    1
 12963 12626 12988    1
 12964 12627 12989    1
 12965 12627 12990    1
 12966 12627 12991    1
 12967 12628 12629    1
 12968 12628 12632    1
 12969 12628 12633    1
 12970 12628 12992    1
 12971 12629 12630    1
 12972 12629 12631    2
 12973 12632 12993    1
 12974 12632 12994    1
 12975 12632 12995    1
 12976 12633 12996    1
 12977 12633 12997    1
 12978 12634 12998    1
 12979 12634 12999    1
 12980 12634 13000    1
 12981 13001 13002    1
 12982 13001 13003    1
 12983 13004 13005    1
 12984 13004 13006    1
 12985 13007 13008    1
 12986 13007 13009    1
 12987 13010 13011    1
 12988 13010 13012    1
 12989 13013 13014    1
 12990 13013 13015    1
 12991 13016 13017    1
 12992 13016 13018    1
 12993 13019 13020    1
 12994 13019 13021    1
 12995 13022 13023    1
 12996 13022 13024    1
 12997 13025 13026    1
 12998 13025 13027    1
 12999 13028 13029    1
 13000 13028 13030    1
 13001 13031 13032    1
 13002 13031 13033    1
 13003 13034 13035    1
 13004 13034 13036    1
 13005 13037 13038    1
 13006 13037 13039    1
 13007 13040 13041    1
 13008 13040 13042    1
 13009 13043 13044    1
 13010 13043 13045    1
 13011 13046 13047    1
 13012 13046 13048    1
 13013 13049 13050    1
 13014 13049 13051    1
 13015 13052 13053    1
 13016 13052 13054    1
 13017 13055 13056    1
 13018 13055 13057    1
 13019 13058 13059    1
 13020 13058 13060    1
 13021 13061 13062    1
 13022 13061 13063    1
 13023 13064 13065    1
 13024 13064 13066    1
 13025 13067 13068    1
 13026 13067 13069    1
 13027 13070 13071    1
 13028 13070 13072    1
 13029 13073 13074    1
 13030 13073 13075    1
 13031 13076 13077    1
 13032 13076 13078    1
 13033 13079 13080    1
 13034 13079 13081    1
 13035 13082 13083    1
 13036 13082 13084    1
 13037 13085 13086    1
 13038 13085 13087    1
 13039 13088 13089    1
 13040 13088 13090    1
 13041 13091 13092    1
 13042 13091 13093    1
 13043 13094 13095    1
 13044 13094 13096    1
 13045 13097 13098    1
 13046 13097 13099    1
 13047 13100 13101    1
 13048 13100 13102    1
 13049 13103 13104    1
 13050 13103 13105    1
 13051 13106 13107    1
 13052 13106 13108    1
 13053 13109 13110    1
 13054 13109 13111    1
 13055 13112 13113    1
 13056 13112 13114    1
 13057 13115 13116    1
 13058 13115 13117    1
 13059 13118 13119    1
 13060 13118 13120    1
 13061 13121 13122    1
 13062 13121 13123    1
 13063 13124 13125    1
 13064 13124 13126    1
 13065 13127 13128    1
 13066 13127 13129    1
 13067 13130 13131    1
 13068 13130 13132    1
 13069 13133 13134    1
 13070 13133 13135    1
 13071 13136 13137    1
 13072 13136 13138    1
 13073 13139 13140    1
 13074 13139 13141    1
 13075 13142 13143    1
 13076 13142 13144    1
 13077 13145 13146    1
 13078 13145 13147    1
 13079 13148 13149    1
 13080 13148 13150    1
 13081 13151 13152    1
 13082 13151 13153    1
 13083 13154 13155    1
 13084 13154 13156    1
 13085 13157 13158    1
 13086 13157 13159    1
 13087 13160 13161    1
 13088 13160 13162    1
 13089 13163 13164    1
 13090 13163 13165    1
 13091 13166 13167    1
 13092 13166 13168    1
 13093 13169 13170    1
 13094 13169 13171    1
 13095 13172 13173    1
 13096 13172 13174    1
 13097 13175 13176    1
 13098 13175 13177    1
 13099 13178 13179    1
 13100 13178 13180    1
 13101 13181 13182    1
 13102 13181 13183    1
 13103 13184 13185    1
 13104 13184 13186    1
 13105 13187 13188    1
 13106 13187 13189    1
 13107 13190 13191    1
 13108 13190 13192    1
 13109 13193 13194    1
 13110 13193 13195    1
 13111 13196 13197    1
 13112 13196 13198    1
 13113 13199 13200    1
 13114 13199 13201    1
 13115 13202 13203    1
 13116 13202 13204    1
 13117 13205 13206    1
 13118 13205 13207    1
 13119 13208 13209    1
 13120 13208 13210    1
 13121 13211 13212    1
 13122 13211 13213    1
 13123 13214 13215    1
 13124 13214 13216    1
 13125 13217 13218    1
 13126 13217 13219    1
 13127 13220 13221    1
 13128 13220 13222    1
 13129 13223 13224    1
 13130 13223 13225    1
 13131 13226 13227    1
 13132 13226 13228    1
 13133 13229 13230    1
 13134 13229 13231    1
 13135 13232 13233    1
 13136 13232 13234    1
 13137 13235 13236    1
 13138 13235 13237    1
 13139 13238 13239    1
 13140 13238 13240    1
 13141 13241 13242    1
 13142 13241 13243    1
 13143 13244 13245    1
 13144 13244 13246    1
 13145 13247 13248    1
 13146 13247 13249    1
 13147 13250 13251    1
 13148 13250 13252    1
 13149 13253 13254    1
 13150 13253 13255    1
 13151 13256 13257    1
 13152 13256 13258    1
 13153 13259 13260    1
 13154 13259 13261    1
 13155 13262 13263    1
 13156 13262 13264    1
 13157 13265 13266    1
 13158 13265 13267    1
 13159 13268 13269    1
 13160 13268 13270    1
 13161 13271 13272    1
 13162 13271 13273    1
 13163 13274 13275    1
 13164 13274 13276    1
 13165 13277 13278    1
 13166 13277 13279    1
 13167 13280 13281    1
 13168 13280 13282    1
 13169 13283 13284    1
 13170 13283 13285    1
 13171 13286 13287    1
 13172 13286 13288    1
 13173 13289 13290    1
 13174 13289 13291    1
 13175 13292 13293    1
 13176 13292 13294    1
 13177 13295 13296    1
 13178 13295 13297    1
 13179 13298 13299    1
 13180 13298 13300    1
 13181 13301 13302    1
 13182 13301 13303    1
 13183 13304 13305    1
 13184 13304 13306    1
 13185 13307 13308    1
 13186 13307 13309    1
 13187 13310 13311    1
 13188 13310 13312    1
 13189 13313 13314    1
 13190 13313 13315    1
 13191 13316 13317    1
 13192 13316 13318    1
 13193 13319 13320    1
 13194 13319 13321    1
 13195 13322 13323    1
 13196 13322 13324    1
 13197 13325 13326    1
 13198 13325 13327    1
 13199 13328 13329    1
 13200 13328 13330    1
 13201 13331 13332    1
 13202 13331 13333    1
 13203 13334 13335    1
 13204 13334 13336    1
 13205 13337 13338    1
 13206 13337 13339    1
 13207 13340 13341    1
 13208 13340 13342    1
 13209 13343 13344    1
 13210 13343 13345    1
 13211 13346 13347    1
 13212 13346 13348    1
 13213 13349 13350    1
 13214 13349 13351    1
 13215 13352 13353    1
 13216 13352 13354    1
 13217 13355 13356    1
 13218 13355 13357    1
 13219 13358 13359    1
 13220 13358 13360    1
 13221 13361 13362    1
 13222 13361 13363    1
 13223 13364 13365    1
 13224 13364 13366    1
 13225 13367 13368    1
 13226 13367 13369    1
 13227 13370 13371    1
 13228 13370 13372    1
 13229 13373 13374    1
 13230 13373 13375    1
 13231 13376 13377    1
 13232 13376 13378    1
 13233 13379 13380    1
 13234 13379 13381    1
 13235 13382 13383    1
 13236 13382 13384    1
 13237 13385 13386    1
 13238 13385 13387    1
 13239 13388 13389    1
 13240 13388 13390    1
 13241 13391 13392    1
 13242 13391 13393    1
 13243 13394 13395    1
 13244 13394 13396    1
 13245 13397 13398    1
 13246 13397 13399    1
 13247 13400 13401    1
 13248 13400 13402    1
 13249 13403 13404    1
 13250 13403 13405    1
 13251 13406 13407    1
 13252 13406 13408    1
 13253 13409 13410    1
 13254 13409 13411    1
 13255 13412 13413    1
 13256 13412 13414    1
 13257 13415 13416    1
 13258 13415 13417    1
 13259 13418 13419    1
 13260 13418 13420    1
 13261 13421 13422    1
 13262 13421 13423    1
 13263 13424 13425    1
 13264 13424 13426    1
 13265 13427 13428    1
 13266 13427 13429    1
 13267 13430 13431    1
 13268 13430 13432    1
 13269 13433 13434    1
 13270 13433 13435    1
 13271 13436 13437    1
 13272 13436 13438    1
 13273 13439 13440    1
 13274 13439 13441    1
 13275 13442 13443    1
 13276 13442 13444    1
 13277 13445 13446    1
 13278 13445 13447    1
 13279 13448 13449    1
 13280 13448 13450    1
 13281 13451 13452    1
 13282 13451 13453    1
 13283 13454 13455    1
 13284 13454 13456    1
 13285 13457 13458    1
 13286 13457 13459    1
 13287 13460 13461    1
 13288 13460 13462    1
 13289 13463 13464    1
 13290 13463 13465    1
 13291 13466 13467    1
 13292 13466 13468    1
 13293 13469 13470    1
 13294 13469 13471    1
 13295 13472 13473    1
 13296 13472 13474    1
 13297 13475 13476    1
 13298 13475 13477    1
 13299 13478 13479    1
 13300 13478 13480    1
 13301 13481 13482    1
 13302 13481 13483    1
 13303 13484 13485    1
 13304 13484 13486    1
 13305 13487 13488    1
 13306 13487 13489    1
 13307 13490 13491    1
 13308 13490 13492    1
 13309 13493 13494    1
 13310 13493 13495    1
 13311 13496 13497    1
 13312 13496 13498    1
 13313 13499 13500    1
 13314 13499 13501    1
 13315 13502 13503    1
 13316 13502 13504    1
 13317 13505 13506    1
 13318 13505 13507    1
 13319 13508 13509    1
 13320 13508 13510    1
 13321 13511 13512    1
 13322 13511 13513    1
 13323 13514 13515    1
 13324 13514 13516    1
 13325 13517 13518    1
 13326 13517 13519    1
 13327 13520 13521    1
 13328 13520 13522    1
 13329 13523 13524    1
 13330 13523 13525    1
 13331 13526 13527    1
 13332 13526 13528    1
 13333 13529 13530    1
 13334 13529 13531    1
 13335 13532 13533    1
 13336 13532 13534    1
 13337 13535 13536    1
 13338 13535 13537    1
 13339 13538 13539    1
 13340 13538 13540    1
 13341 13541 13542    1
 13342 13541 13543    1
 13343 13544 13545    1
 13344 13544 13546    1
 13345 13547 13548    1
 13346 13547 13549    1
 13347 13550 13551    1
 13348 13550 13552    1
 13349 13553 13554    1
 13350 13553 13555    1
 13351 13556 13557    1
 13352 13556 13558    1
 13353 13559 13560    1
 13354 13559 13561    1
 13355 13562 13563    1
 13356 13562 13564    1
 13357 13565 13566    1
 13358 13565 13567    1
 13359 13568 13569    1
 13360 13568 13570    1
 13361 13571 13572    1
 13362 13571 13573    1
 13363 13574 13575    1
 13364 13574 13576    1
 13365 13577 13578    1
 13366 13577 13579    1
 13367 13580 13581    1
 13368 13580 13582    1
 13369 13583 13584    1
 13370 13583 13585    1
 13371 13586 13587    1
 13372 13586 13588    1
 13373 13589 13590    1
 13374 13589 13591    1
 13375 13592 13593    1
 13376 13592 13594    1
 13377 13595 13596    1
 13378 13595 13597    1
 13379 13598 13599    1
 13380 13598 13600    1
 13381 13601 13602    1
 13382 13601 13603    1
 13383 13604 13605    1
 13384 13604 13606    1
 13385 13607 13608    1
 13386 13607 13609    1
 13387 13610 13611    1
 13388 13610 13612    1
 13389 13613 13614    1
 13390 13613 13615    1
 13391 13616 13617    1
 13392 13616 13618    1
 13393 13619 13620    1
 13394 13619 13621    1
 13395 13622 13623    1
 13396 13622 13624    1
 13397 13625 13626    1
 13398 13625 13627    1
 13399 13628 13629    1
 13400 13628 13630    1
 13401 13631 13632    1
 13402 13631 13633    1
 13403 13634 13635    1
 13404 13634 13636    1
 13405 13637 13638    1
 13406 13637 13639    1
 13407 13640 13641    1
 13408 13640 13642    1
 13409 13643 13644    1
 13410 13643 13645    1
 13411 13646 13647    1
 13412 13646 13648    1
 13413 13649 13650    1
 13414 13649 13651    1
 13415 13652 13653    1
 13416 13652 13654    1
 13417 13655 13656    1
 13418 13655 13657    1
 13419 13658 13659    1
 13420 13658 13660    1
 13421 13661 13662    1
 13422 13661 13663    1
 13423 13664 13665    1
 13424 13664 13666    1
 13425 13667 13668    1
 13426 13667 13669    1
 13427 13670 13671    1
 13428 13670 13672    1
 13429 13673 13674    1
 13430 13673 13675    1
 13431 13676 13677    1
 13432 13676 13678    1
 13433 13679 13680    1
 13434 13679 13681    1
 13435 13682 13683    1
 13436 13682 13684    1
 13437 13685 13686    1
 13438 13685 13687    1
 13439 13688 13689    1
 13440 13688 13690    1
 13441 13691 13692    1
 13442 13691 13693    1
 13443 13694 13695    1
 13444 13694 13696    1
 13445 13697 13698    1
 13446 13697 13699    1
 13447 13700 13701    1
 13448 13700 13702    1
 13449 13703 13704    1
 13450 13703 13705    1
 13451 13706 13707    1
 13452 13706 13708    1
 13453 13709 13710    1
 13454 13709 13711    1
 13455 13712 13713    1
 13456 13712 13714    1
 13457 13715 13716    1
 13458 13715 13717    1
 13459 13718 13719    1
 13460 13718 13720    1
 13461 13721 13722    1
 13462 13721 13723    1
 13463 13724 13725    1
 13464 13724 13726    1
 13465 13727 13728    1
 13466 13727 13729    1
 13467 13730 13731    1
 13468 13730 13732    1
 13469 13733 13734    1
 13470 13733 13735    1
 13471 13736 13737    1
 13472 13736 13738    1
 13473 13739 13740    1
 13474 13739 13741    1
 13475 13742 13743    1
 13476 13742 13744    1
 13477 13745 13746    1
 13478 13745 13747    1
 13479 13748 13749    1
 13480 13748 13750    1
 13481 13751 13752    1
 13482 13751 13753    1
 13483 13754 13755    1
 13484 13754 13756    1
 13485 13757 13758    1
 13486 13757 13759    1
 13487 13760 13761    1
 13488 13760 13762    1
 13489 13763 13764    1
 13490 13763 13765    1
 13491 13766 13767    1
 13492 13766 13768    1
 13493 13769 13770    1
 13494 13769 13771    1
 13495 13772 13773    1
 13496 13772 13774    1
 13497 13775 13776    1
 13498 13775 13777    1
 13499 13778 13779    1
 13500 13778 13780    1
 13501 13781 13782    1
 13502 13781 13783    1
 13503 13784 13785    1
 13504 13784 13786    1
 13505 13787 13788    1
 13506 13787 13789    1
 13507 13790 13791    1
 13508 13790 13792    1
 13509 13793 13794    1
 13510 13793 13795    1
 13511 13796 13797    1
 13512 13796 13798    1
 13513 13799 13800    1
 13514 13799 13801    1
 13515 13802 13803    1
 13516 13802 13804    1
 13517 13805 13806    1
 13518 13805 13807    1
 13519 13808 13809    1
 13520 13808 13810    1
 13521 13811 13812    1
 13522 13811 13813    1
 13523 13814 13815    1
 13524 13814 13816    1
 13525 13817 13818    1
 13526 13817 13819    1
 13527 13820 13821    1
 13528 13820 13822    1
 13529 13823 13824    1
 13530 13823 13825    1
 13531 13826 13827    1
 13532 13826 13828    1
 13533 13829 13830    1
 13534 13829 13831    1
 13535 13832 13833    1
 13536 13832 13834    1
 13537 13835 13836    1
 13538 13835 13837    1
 13539 13838 13839    1
 13540 13838 13840    1
 13541 13841 13842    1
 13542 13841 13843    1
 13543 13844 13845    1
 13544 13844 13846    1
 13545 13847 13848    1
 13546 13847 13849    1
 13547 13850 13851    1
 13548 13850 13852    1
 13549 13853 13854    1
 13550 13853 13855    1
 13551 13856 13857    1
 13552 13856 13858    1
 13553 13859 13860    1
 13554 13859 13861    1
 13555 13862 13863    1
 13556 13862 13864    1
 13557 13865 13866    1
 13558 13865 13867    1
 13559 13868 13869    1
 13560 13868 13870    1
 13561 13871 13872    1
 13562 13871 13873    1
 13563 13874 13875    1
 13564 13874 13876    1
 13565 13877 13878    1
 13566 13877 13879    1
 13567 13880 13881    1
 13568 13880 13882    1
 13569 13883 13884    1
 13570 13883 13885    1
 13571 13886 13887    1
 13572 13886 13888    1
 13573 13889 13890    1
 13574 13889 13891    1
 13575 13892 13893    1
 13576 13892 13894    1
 13577 13895 13896    1
 13578 13895 13897    1
 13579 13898 13899    1
 13580 13898 13900    1
 13581 13901 13902    1
 13582 13901 13903    1
 13583 13904 13905    1
 13584 13904 13906    1
 13585 13907 13908    1
 13586 13907 13909    1
 13587 13910 13911    1
 13588 13910 13912    1
 13589 13913 13914    1
 13590 13913 13915    1
 13591 13916 13917    1
 13592 13916 13918    1
 13593 13919 13920    1
 13594 13919 13921    1
 13595 13922 13923    1
 13596 13922 13924    1
 13597 13925 13926    1
 13598 13925 13927    1
 13599 13928 13929    1
 13600 13928 13930    1
 13601 13931 13932    1
 13602 13931 13933    1
 13603 13934 13935    1
 13604 13934 13936    1
 13605 13937 13938    1
 13606 13937 13939    1
 13607 13940 13941    1
 13608 13940 13942    1
 13609 13943 13944    1
 13610 13943 13945    1
 13611 13946 13947    1
 13612 13946 13948    1
 13613 13949 13950    1
 13614 13949 13951    1
 13615 13952 13953    1
 13616 13952 13954    1
 13617 13955 13956    1
 13618 13955 13957    1
 13619 13958 13959    1
 13620 13958 13960    1
 13621 13961 13962    1
 13622 13961 13963    1
 13623 13964 13965    1
 13624 13964 13966    1
 13625 13967 13968    1
 13626 13967 13969    1
 13627 13970 13971    1
 13628 13970 13972    1
 13629 13973 13974    1
 13630 13973 13975    1
 13631 13976 13977    1
 13632 13976 13978    1
 13633 13979 13980    1
 13634 13979 13981    1
 13635 13982 13983    1
 13636 13982 13984    1
 13637 13985 13986    1
 13638 13985 13987    1
 13639 13988 13989    1
 13640 13988 13990    1
 13641 13991 13992    1
 13642 13991 13993    1
 13643 13994 13995    1
 13644 13994 13996    1
 13645 13997 13998    1
 13646 13997 13999    1
 13647 14000 14001    1
 13648 14000 14002    1
 13649 14003 14004    1
 13650 14003 14005    1
 13651 14006 14007    1
 13652 14006 14008    1
 13653 14009 14010    1
 13654 14009 14011    1
 13655 14012 14013    1
 13656 14012 14014    1
 13657 14015 14016    1
 13658 14015 14017    1
 13659 14018 14019    1
 13660 14018 14020    1
 13661 14021 14022    1
 13662 14021 14023    1
 13663 14024 14025    1
 13664 14024 14026    1
 13665 14027 14028    1
 13666 14027 14029    1
 13667 14030 14031    1
 13668 14030 14032    1
 13669 14033 14034    1
 13670 14033 14035    1
 13671 14036 14037    1
 13672 14036 14038    1
 13673 14039 14040    1
 13674 14039 14041    1
 13675 14042 14043    1
 13676 14042 14044    1
 13677 14045 14046    1
 13678 14045 14047    1
 13679 14048 14049    1
 13680 14048 14050    1
 13681 14051 14052    1
 13682 14051 14053    1
 13683 14054 14055    1
 13684 14054 14056    1
 13685 14057 14058    1
 13686 14057 14059    1
 13687 14060 14061    1
 13688 14060 14062    1
 13689 14063 14064    1
 13690 14063 14065    1
 13691 14066 14067    1
 13692 14066 14068    1
 13693 14069 14070    1
 13694 14069 14071    1
 13695 14072 14073    1
 13696 14072 14074    1
 13697 14075 14076    1
 13698 14075 14077    1
 13699 14078 14079    1
 13700 14078 14080    1
 13701 14081 14082    1
 13702 14081 14083    1
 13703 14084 14085    1
 13704 14084 14086    1
 13705 14087 14088    1
 13706 14087 14089    1
 13707 14090 14091    1
 13708 14090 14092    1
 13709 14093 14094    1
 13710 14093 14095    1
 13711 14096 14097    1
 13712 14096 14098    1
 13713 14099 14100    1
 13714 14099 14101    1
 13715 14102 14103    1
 13716 14102 14104    1
 13717 14105 14106    1
 13718 14105 14107    1
 13719 14108 14109    1
 13720 14108 14110    1
 13721 14111 14112    1
 13722 14111 14113    1
 13723 14114 14115    1
 13724 14114 14116    1
 13725 14117 14118    1
 13726 14117 14119    1
 13727 14120 14121    1
 13728 14120 14122    1
 13729 14123 14124    1
 13730 14123 14125    1
 13731 14126 14127    1
 13732 14126 14128    1
 13733 14129 14130    1
 13734 14129 14131    1
 13735 14132 14133    1
 13736 14132 14134    1
 13737 14135 14136    1
 13738 14135 14137    1
 13739 14138 14139    1
 13740 14138 14140    1
 13741 14141 14142    1
 13742 14141 14143    1
 13743 14144 14145    1
 13744 14144 14146    1
 13745 14147 14148    1
 13746 14147 14149    1
 13747 14150 14151    1
 13748 14150 14152    1
 13749 14153 14154    1
 13750 14153 14155    1
 13751 14156 14157    1
 13752 14156 14158    1
 13753 14159 14160    1
 13754 14159 14161    1
 13755 14162 14163    1
 13756 14162 14164    1
 13757 14165 14166    1
 13758 14165 14167    1
 13759 14168 14169    1
 13760 14168 14170    1
 13761 14171 14172    1
 13762 14171 14173    1
 13763 14174 14175    1
 13764 14174 14176    1
 13765 14177 14178    1
 13766 14177 14179    1
 13767 14180 14181    1
 13768 14180 14182    1
 13769 14183 14184    1
 13770 14183 14185    1
 13771 14186 14187    1
 13772 14186 14188    1
 13773 14189 14190    1
 13774 14189 14191    1
 13775 14192 14193    1
 13776 14192 14194    1
 13777 14195 14196    1
 13778 14195 14197    1
 13779 14198 14199    1
 13780 14198 14200    1
 13781 14201 14202    1
 13782 14201 14203    1
 13783 14204 14205    1
 13784 14204 14206    1
 13785 14207 14208    1
 13786 14207 14209    1
 13787 14210 14211    1
 13788 14210 14212    1
 13789 14213 14214    1
 13790 14213 14215    1
 13791 14216 14217    1
 13792 14216 14218    1
 13793 14219 14220    1
 13794 14219 14221    1
 13795 14222 14223    1
 13796 14222 14224    1
 13797 14225 14226    1
 13798 14225 14227    1
 13799 14228 14229    1
 13800 14228 14230    1
 13801 14231 14232    1
 13802 14231 14233    1
 13803 14234 14235    1
 13804 14234 14236    1
 13805 14237 14238    1
 13806 14237 14239    1
 13807 14240 14241    1
 13808 14240 14242    1
 13809 14243 14244    1
 13810 14243 14245    1
 13811 14246 14247    1
 13812 14246 14248    1
 13813 14249 14250    1
 13814 14249 14251    1
 13815 14252 14253    1
 13816 14252 14254    1
 13817 14255 14256    1
 13818 14255 14257    1
 13819 14258 14259    1
 13820 14258 14260    1
 13821 14261 14262    1
 13822 14261 14263    1
 13823 14264 14265    1
 13824 14264 14266    1
 13825 14267 14268    1
 13826 14267 14269    1
 13827 14270 14271    1
 13828 14270 14272    1
 13829 14273 14274    1
 13830 14273 14275    1
 13831 14276 14277    1
 13832 14276 14278    1
 13833 14279 14280    1
 13834 14279 14281    1
 13835 14282 14283    1
 13836 14282 14284    1
 13837 14285 14286    1
 13838 14285 14287    1
 13839 14288 14289    1
 13840 14288 14290    1
 13841 14291 14292    1
 13842 14291 14293    1
 13843 14294 14295    1
 13844 14294 14296    1
 13845 14297 14298    1
 13846 14297 14299    1
 13847 14300 14301    1
 13848 14300 14302    1
 13849 14303 14304    1
 13850 14303 14305    1
 13851 14306 14307    1
 13852 14306 14308    1
 13853 14309 14310    1
 13854 14309 14311    1
 13855 14312 14313    1
 13856 14312 14314    1
 13857 14315 14316    1
 13858 14315 14317    1
 13859 14318 14319    1
 13860 14318 14320    1
 13861 14321 14322    1
 13862 14321 14323    1
 13863 14324 14325    1
 13864 14324 14326    1
 13865 14327 14328    1
 13866 14327 14329    1
 13867 14330 14331    1
 13868 14330 14332    1
 13869 14333 14334    1
 13870 14333 14335    1
 13871 14336 14337    1
 13872 14336 14338    1
 13873 14339 14340    1
 13874 14339 14341    1
 13875 14342 14343    1
 13876 14342 14344    1
 13877 14345 14346    1
 13878 14345 14347    1
 13879 14348 14349    1
 13880 14348 14350    1
 13881 14351 14352    1
 13882 14351 14353    1
 13883 14354 14355    1
 13884 14354 14356    1
 13885 14357 14358    1
 13886 14357 14359    1
 13887 14360 14361    1
 13888 14360 14362    1
 13889 14363 14364    1
 13890 14363 14365    1
 13891 14366 14367    1
 13892 14366 14368    1
 13893 14369 14370    1
 13894 14369 14371    1
 13895 14372 14373    1
 13896 14372 14374    1
 13897 14375 14376    1
 13898 14375 14377    1
 13899 14378 14379    1
 13900 14378 14380    1
 13901 14381 14382    1
 13902 14381 14383    1
 13903 14384 14385    1
 13904 14384 14386    1
 13905 14387 14388    1
 13906 14387 14389    1
 13907 14390 14391    1
 13908 14390 14392    1
 13909 14393 14394    1
 13910 14393 14395    1
 13911 14396 14397    1
 13912 14396 14398    1
 13913 14399 14400    1
 13914 14399 14401    1
 13915 14402 14403    1
 13916 14402 14404    1
 13917 14405 14406    1
 13918 14405 14407    1
 13919 14408 14409    1
 13920 14408 14410    1
 13921 14411 14412    1
 13922 14411 14413    1
 13923 14414 14415    1
 13924 14414 14416    1
 13925 14417 14418    1
 13926 14417 14419    1
 13927 14420 14421    1
 13928 14420 14422    1
 13929 14423 14424    1
 13930 14423 14425    1
 13931 14426 14427    1
 13932 14426 14428    1
 13933 14429 14430    1
 13934 14429 14431    1
 13935 14432 14433    1
 13936 14432 14434    1
 13937 14435 14436    1
 13938 14435 14437    1
 13939 14438 14439    1
 13940 14438 14440    1
 13941 14441 14442    1
 13942 14441 14443    1
 13943 14444 14445    1
 13944 14444 14446    1
 13945 14447 14448    1
 13946 14447 14449    1
 13947 14450 14451    1
 13948 14450 14452    1
 13949 14453 14454    1
 13950 14453 14455    1
 13951 14456 14457    1
 13952 14456 14458    1
 13953 14459 14460    1
 13954 14459 14461    1
 13955 14462 14463    1
 13956 14462 14464    1
 13957 14465 14466    1
 13958 14465 14467    1
 13959 14468 14469    1
 13960 14468 14470    1
 13961 14471 14472    1
 13962 14471 14473    1
 13963 14474 14475    1
 13964 14474 14476    1
 13965 14477 14478    1
 13966 14477 14479    1
 13967 14480 14481    1
 13968 14480 14482    1
 13969 14483 14484    1
 13970 14483 14485    1
 13971 14486 14487    1
 13972 14486 14488    1
 13973 14489 14490    1
 13974 14489 14491    1
 13975 14492 14493    1
 13976 14492 14494    1
 13977 14495 14496    1
 13978 14495 14497    1
 13979 14498 14499    1
 13980 14498 14500    1
 13981 14501 14502    1
 13982 14501 14503    1
 13983 14504 14505    1
 13984 14504 14506    1
 13985 14507 14508    1
 13986 14507 14509    1
 13987 14510 14511    1
 13988 14510 14512    1
 13989 14513 14514    1
 13990 14513 14515    1
 13991 14516 14517    1
 13992 14516 14518    1
 13993 14519 14520    1
 13994 14519 14521    1
 13995 14522 14523    1
 13996 14522 14524    1
 13997 14525 14526    1
 13998 14525 14527    1
 13999 14528 14529    1
 14000 14528 14530    1
 14001 14531 14532    1
 14002 14531 14533    1
 14003 14534 14535    1
 14004 14534 14536    1
 14005 14537 14538    1
 14006 14537 14539    1
 14007 14540 14541    1
 14008 14540 14542    1
 14009 14543 14544    1
 14010 14543 14545    1
 14011 14546 14547    1
 14012 14546 14548    1
 14013 14549 14550    1
 14014 14549 14551    1
 14015 14552 14553    1
 14016 14552 14554    1
 14017 14555 14556    1
 14018 14555 14557    1
 14019 14558 14559    1
 14020 14558 14560    1
 14021 14561 14562    1
 14022 14561 14563    1
 14023 14564 14565    1
 14024 14564 14566    1
 14025 14567 14568    1
 14026 14567 14569    1
 14027 14570 14571    1
 14028 14570 14572    1
 14029 14573 14574    1
 14030 14573 14575    1
 14031 14576 14577    1
 14032 14576 14578    1
 14033 14579 14580    1
 14034 14579 14581    1
 14035 14582 14583    1
 14036 14582 14584    1
 14037 14585 14586    1
 14038 14585 14587    1
 14039 14588 14589    1
 14040 14588 14590    1
 14041 14591 14592    1
 14042 14591 14593    1
 14043 14594 14595    1
 14044 14594 14596    1
 14045 14597 14598    1
 14046 14597 14599    1
 14047 14600 14601    1
 14048 14600 14602    1
 14049 14603 14604    1
 14050 14603 14605    1
 14051 14606 14607    1
 14052 14606 14608    1
 14053 14609 14610    1
 14054 14609 14611    1
 14055 14612 14613    1
 14056 14612 14614    1
 14057 14615 14616    1
 14058 14615 14617    1
 14059 14618 14619    1
 14060 14618 14620    1
 14061 14621 14622    1
 14062 14621 14623    1
 14063 14624 14625    1
 14064 14624 14626    1
 14065 14627 14628    1
 14066 14627 14629    1
 14067 14630 14631    1
 14068 14630 14632    1
 14069 14633 14634    1
 14070 14633 14635    1
 14071 14636 14637    1
 14072 14636 14638    1
 14073 14639 14640    1
 14074 14639 14641    1
 14075 14642 14643    1
 14076 14642 14644    1
 14077 14645 14646    1
 14078 14645 14647    1
 14079 14648 14649    1
 14080 14648 14650    1
 14081 14651 14652    1
 14082 14651 14653    1
 14083 14654 14655    1
 14084 14654 14656    1
 14085 14657 14658    1
 14086 14657 14659    1
 14087 14660 14661    1
 14088 14660 14662    1
 14089 14663 14664    1
 14090 14663 14665    1
 14091 14666 14667    1
 14092 14666 14668    1
 14093 14669 14670    1
 14094 14669 14671    1
 14095 14672 14673    1
 14096 14672 14674    1
 14097 14675 14676    1
 14098 14675 14677    1
 14099 14678 14679    1
 14100 14678 14680    1
 14101 14681 14682    1
 14102 14681 14683    1
 14103 14684 14685    1
 14104 14684 14686    1
 14105 14687 14688    1
 14106 14687 14689    1
 14107 14690 14691    1
 14108 14690 14692    1
 14109 14693 14694    1
 14110 14693 14695    1
 14111 14696 14697    1
 14112 14696 14698    1
 14113 14699 14700    1
 14114 14699 14701    1
 14115 14702 14703    1
 14116 14702 14704    1
 14117 14705 14706    1
 14118 14705 14707    1
 14119 14708 14709    1
 14120 14708 14710    1
 14121 14711 14712    1
 14122 14711 14713    1
 14123 14714 14715    1
 14124 14714 14716    1
 14125 14717 14718    1
 14126 14717 14719    1
 14127 14720 14721    1
 14128 14720 14722    1
 14129 14723 14724    1
 14130 14723 14725    1
 14131 14726 14727    1
 14132 14726 14728    1
 14133 14729 14730    1
 14134 14729 14731    1
 14135 14732 14733    1
 14136 14732 14734    1
 14137 14735 14736    1
 14138 14735 14737    1
 14139 14738 14739    1
 14140 14738 14740    1
 14141 14741 14742    1
 14142 14741 14743    1
 14143 14744 14745    1
 14144 14744 14746    1
 14145 14747 14748    1
 14146 14747 14749    1
 14147 14750 14751    1
 14148 14750 14752    1
 14149 14753 14754    1
 14150 14753 14755    1
 14151 14756 14757    1
 14152 14756 14758    1
 14153 14759 14760    1
 14154 14759 14761    1
 14155 14762 14763    1
 14156 14762 14764    1
 14157 14765 14766    1
 14158 14765 14767    1
 14159 14768 14769    1
 14160 14768 14770    1
 14161 14771 14772    1
 14162 14771 14773    1
 14163 14774 14775    1
 14164 14774 14776    1
 14165 14777 14778    1
 14166 14777 14779    1
 14167 14780 14781    1
 14168 14780 14782    1
 14169 14783 14784    1
 14170 14783 14785    1
 14171 14786 14787    1
 14172 14786 14788    1
 14173 14789 14790    1
 14174 14789 14791    1
 14175 14792 14793    1
 14176 14792 14794    1
 14177 14795 14796    1
 14178 14795 14797    1
 14179 14798 14799    1
 14180 14798 14800    1
 14181 14801 14802    1
 14182 14801 14803    1
 14183 14804 14805    1
 14184 14804 14806    1
 14185 14807 14808    1
 14186 14807 14809    1
 14187 14810 14811    1
 14188 14810 14812    1
 14189 14813 14814    1
 14190 14813 14815    1
 14191 14816 14817    1
 14192 14816 14818    1
 14193 14819 14820    1
 14194 14819 14821    1
 14195 14822 14823    1
 14196 14822 14824    1
 14197 14825 14826    1
 14198 14825 14827    1
 14199 14828 14829    1
 14200 14828 14830    1
 14201 14831 14832    1
 14202 14831 14833    1
 14203 14834 14835    1
 14204 14834 14836    1
 14205 14837 14838    1
 14206 14837 14839    1
 14207 14840 14841    1
 14208 14840 14842    1
 14209 14843 14844    1
 14210 14843 14845    1
 14211 14846 14847    1
 14212 14846 14848    1
 14213 14849 14850    1
 14214 14849 14851    1
 14215 14852 14853    1
 14216 14852 14854    1
 14217 14855 14856    1
 14218 14855 14857    1
 14219 14858 14859    1
 14220 14858 14860    1
 14221 14861 14862    1
 14222 14861 14863    1
 14223 14864 14865    1
 14224 14864 14866    1
 14225 14867 14868    1
 14226 14867 14869    1
 14227 14870 14871    1
 14228 14870 14872    1
 14229 14873 14874    1
 14230 14873 14875    1
 14231 14876 14877    1
 14232 14876 14878    1
 14233 14879 14880    1
 14234 14879 14881    1
 14235 14882 14883    1
 14236 14882 14884    1
 14237 14885 14886    1
 14238 14885 14887    1
 14239 14888 14889    1
 14240 14888 14890    1
 14241 14891 14892    1
 14242 14891 14893    1
 14243 14894 14895    1
 14244 14894 14896    1
 14245 14897 14898    1
 14246 14897 14899    1
 14247 14900 14901    1
 14248 14900 14902    1
 14249 14903 14904    1
 14250 14903 14905    1
 14251 14906 14907    1
 14252 14906 14908    1
 14253 14909 14910    1
 14254 14909 14911    1
 14255 14912 14913    1
 14256 14912 14914    1
 14257 14915 14916    1
 14258 14915 14917    1
 14259 14918 14919    1
 14260 14918 14920    1
 14261 14921 14922    1
 14262 14921 14923    1
 14263 14924 14925    1
 14264 14924 14926    1
 14265 14927 14928    1
 14266 14927 14929    1
 14267 14930 14931    1
 14268 14930 14932    1
 14269 14933 14934    1
 14270 14933 14935    1
 14271 14936 14937    1
 14272 14936 14938    1
 14273 14939 14940    1
 14274 14939 14941    1
 14275 14942 14943    1
 14276 14942 14944    1
 14277 14945 14946    1
 14278 14945 14947    1
 14279 14948 14949    1
 14280 14948 14950    1
 14281 14951 14952    1
 14282 14951 14953    1
 14283 14954 14955    1
 14284 14954 14956    1
 14285 14957 14958    1
 14286 14957 14959    1
 14287 14960 14961    1
 14288 14960 14962    1
 14289 14963 14964    1
 14290 14963 14965    1
 14291 14966 14967    1
 14292 14966 14968    1
 14293 14969 14970    1
 14294 14969 14971    1
 14295 14972 14973    1
 14296 14972 14974    1
 14297 14975 14976    1
 14298 14975 14977    1
 14299 14978 14979    1
 14300 14978 14980    1
 14301 14981 14982    1
 14302 14981 14983    1
 14303 14984 14985    1
 14304 14984 14986    1
 14305 14987 14988    1
 14306 14987 14989    1
 14307 14990 14991    1
 14308 14990 14992    1
 14309 14993 14994    1
 14310 14993 14995    1
 14311 14996 14997    1
 14312 14996 14998    1
 14313 14999 15000    1
 14314 14999 15001    1
 14315 15002 15003    1
 14316 15002 15004    1
 14317 15005 15006    1
 14318 15005 15007    1
 14319 15008 15009    1
 14320 15008 15010    1
 14321 15011 15012    1
 14322 15011 15013    1
 14323 15014 15015    1
 14324 15014 15016    1
 14325 15017 15018    1
 14326 15017 15019    1
 14327 15020 15021    1
 14328 15020 15022    1
 14329 15023 15024    1
 14330 15023 15025    1
 14331 15026 15027    1
 14332 15026 15028    1
 14333 15029 15030    1
 14334 15029 15031    1
 14335 15032 15033    1
 14336 15032 15034    1
 14337 15035 15036    1
 14338 15035 15037    1
 14339 15038 15039    1
 14340 15038 15040    1
 14341 15041 15042    1
 14342 15041 15043    1
 14343 15044 15045    1
 14344 15044 15046    1
 14345 15047 15048    1
 14346 15047 15049    1
 14347 15050 15051    1
 14348 15050 15052    1
 14349 15053 15054    1
 14350 15053 15055    1
 14351 15056 15057    1
 14352 15056 15058    1
 14353 15059 15060    1
 14354 15059 15061    1
 14355 15062 15063    1
 14356 15062 15064    1
 14357 15065 15066    1
 14358 15065 15067    1
 14359 15068 15069    1
 14360 15068 15070    1
 14361 15071 15072    1
 14362 15071 15073    1
 14363 15074 15075    1
 14364 15074 15076    1
 14365 15077 15078    1
 14366 15077 15079    1
 14367 15080 15081    1
 14368 15080 15082    1
 14369 15083 15084    1
 14370 15083 15085    1
 14371 15086 15087    1
 14372 15086 15088    1
 14373 15089 15090    1
 14374 15089 15091    1
 14375 15092 15093    1
 14376 15092 15094    1
 14377 15095 15096    1
 14378 15095 15097    1
 14379 15098 15099    1
 14380 15098 15100    1
 14381 15101 15102    1
 14382 15101 15103    1
 14383 15104 15105    1
 14384 15104 15106    1
 14385 15107 15108    1
 14386 15107 15109    1
 14387 15110 15111    1
 14388 15110 15112    1
 14389 15113 15114    1
 14390 15113 15115    1
 14391 15116 15117    1
 14392 15116 15118    1
 14393 15119 15120    1
 14394 15119 15121    1
 14395 15122 15123    1
 14396 15122 15124    1
 14397 15125 15126    1
 14398 15125 15127    1
 14399 15128 15129    1
 14400 15128 15130    1
 14401 15131 15132    1
 14402 15131 15133    1
 14403 15134 15135    1
 14404 15134 15136    1
 14405 15137 15138    1
 14406 15137 15139    1
 14407 15140 15141    1
 14408 15140 15142    1
 14409 15143 15144    1
 14410 15143 15145    1
 14411 15146 15147    1
 14412 15146 15148    1
 14413 15149 15150    1
 14414 15149 15151    1
 14415 15152 15153    1
 14416 15152 15154    1
 14417 15155 15156    1
 14418 15155 15157    1
 14419 15158 15159    1
 14420 15158 15160    1
 14421 15161 15162    1
 14422 15161 15163    1
 14423 15164 15165    1
 14424 15164 15166    1
 14425 15167 15168    1
 14426 15167 15169    1
 14427 15170 15171    1
 14428 15170 15172    1
 14429 15173 15174    1
 14430 15173 15175    1
 14431 15176 15177    1
 14432 15176 15178    1
 14433 15179 15180    1
 14434 15179 15181    1
 14435 15182 15183    1
 14436 15182 15184    1
 14437 15185 15186    1
 14438 15185 15187    1
 14439 15188 15189    1
 14440 15188 15190    1
 14441 15191 15192    1
 14442 15191 15193    1
 14443 15194 15195    1
 14444 15194 15196    1
 14445 15197 15198    1
 14446 15197 15199    1
 14447 15200 15201    1
 14448 15200 15202    1
 14449 15203 15204    1
 14450 15203 15205    1
 14451 15206 15207    1
 14452 15206 15208    1
 14453 15209 15210    1
 14454 15209 15211    1
 14455 15212 15213    1
 14456 15212 15214    1
 14457 15215 15216    1
 14458 15215 15217    1
 14459 15218 15219    1
 14460 15218 15220    1
 14461 15221 15222    1
 14462 15221 15223    1
 14463 15224 15225    1
 14464 15224 15226    1
 14465 15227 15228    1
 14466 15227 15229    1
 14467 15230 15231    1
 14468 15230 15232    1
 14469 15233 15234    1
 14470 15233 15235    1
 14471 15236 15237    1
 14472 15236 15238    1
 14473 15239 15240    1
 14474 15239 15241    1
 14475 15242 15243    1
 14476 15242 15244    1
 14477 15245 15246    1
 14478 15245 15247    1
 14479 15248 15249    1
 14480 15248 15250    1
 14481 15251 15252    1
 14482 15251 15253    1
 14483 15254 15255    1
 14484 15254 15256    1
 14485 15257 15258    1
 14486 15257 15259    1
 14487 15260 15261    1
 14488 15260 15262    1
 14489 15263 15264    1
 14490 15263 15265    1
 14491 15266 15267    1
 14492 15266 15268    1
 14493 15269 15270    1
 14494 15269 15271    1
 14495 15272 15273    1
 14496 15272 15274    1
 14497 15275 15276    1
 14498 15275 15277    1
 14499 15278 15279    1
 14500 15278 15280    1
 14501 15281 15282    1
 14502 15281 15283    1
 14503 15284 15285    1
 14504 15284 15286    1
 14505 15287 15288    1
 14506 15287 15289    1
 14507 15290 15291    1
 14508 15290 15292    1
 14509 15293 15294    1
 14510 15293 15295    1
 14511 15296 15297    1
 14512 15296 15298    1
 14513 15299 15300    1
 14514 15299 15301    1
 14515 15302 15303    1
 14516 15302 15304    1
 14517 15305 15306    1
 14518 15305 15307    1
 14519 15308 15309    1
 14520 15308 15310    1
 14521 15311 15312    1
 14522 15311 15313    1
 14523 15314 15315    1
 14524 15314 15316    1
 14525 15317 15318    1
 14526 15317 15319    1
 14527 15320 15321    1
 14528 15320 15322    1
 14529 15323 15324    1
 14530 15323 15325    1
 14531 15326 15327    1
 14532 15326 15328    1
 14533 15329 15330    1
 14534 15329 15331    1
 14535 15332 15333    1
 14536 15332 15334    1
 14537 15335 15336    1
 14538 15335 15337    1
 14539 15338 15339    1
 14540 15338 15340    1
 14541 15341 15342    1
 14542 15341 15343    1
 14543 15344 15345    1
 14544 15344 15346    1
 14545 15347 15348    1
 14546 15347 15349    1
 14547 15350 15351    1
 14548 15350 15352    1
 14549 15353 15354    1
 14550 15353 15355    1
 14551 15356 15357    1
 14552 15356 15358    1
 14553 15359 15360    1
 14554 15359 15361    1
 14555 15362 15363    1
 14556 15362 15364    1
 14557 15365 15366    1
 14558 15365 15367    1
 14559 15368 15369    1
 14560 15368 15370    1
 14561 15371 15372    1
 14562 15371 15373    1
 14563 15374 15375    1
 14564 15374 15376    1
 14565 15377 15378    1
 14566 15377 15379    1
 14567 15380 15381    1
 14568 15380 15382    1
 14569 15383 15384    1
 14570 15383 15385    1
 14571 15386 15387    1
 14572 15386 15388    1
 14573 15389 15390    1
 14574 15389 15391    1
 14575 15392 15393    1
 14576 15392 15394    1
 14577 15395 15396    1
 14578 15395 15397    1
 14579 15398 15399    1
 14580 15398 15400    1
 14581 15401 15402    1
 14582 15401 15403    1
 14583 15404 15405    1
 14584 15404 15406    1
 14585 15407 15408    1
 14586 15407 15409    1
 14587 15410 15411    1
 14588 15410 15412    1
 14589 15413 15414    1
 14590 15413 15415    1
 14591 15416 15417    1
 14592 15416 15418    1
 14593 15419 15420    1
 14594 15419 15421    1
 14595 15422 15423    1
 14596 15422 15424    1
 14597 15425 15426    1
 14598 15425 15427    1
 14599 15428 15429    1
 14600 15428 15430    1
 14601 15431 15432    1
 14602 15431 15433    1
 14603 15434 15435    1
 14604 15434 15436    1
 14605 15437 15438    1
 14606 15437 15439    1
 14607 15440 15441    1
 14608 15440 15442    1
 14609 15443 15444    1
 14610 15443 15445    1
 14611 15446 15447    1
 14612 15446 15448    1
 14613 15449 15450    1
 14614 15449 15451    1
 14615 15452 15453    1
 14616 15452 15454    1
 14617 15455 15456    1
 14618 15455 15457    1
 14619 15458 15459    1
 14620 15458 15460    1
 14621 15461 15462    1
 14622 15461 15463    1
 14623 15464 15465    1
 14624 15464 15466    1
 14625 15467 15468    1
 14626 15467 15469    1
 14627 15470 15471    1
 14628 15470 15472    1
 14629 15473 15474    1
 14630 15473 15475    1
 14631 15476 15477    1
 14632 15476 15478    1
 14633 15479 15480    1
 14634 15479 15481    1
 14635 15482 15483    1
 14636 15482 15484    1
 14637 15485 15486    1
 14638 15485 15487    1
 14639 15488 15489    1
 14640 15488 15490    1
 14641 15491 15492    1
 14642 15491 15493    1
 14643 15494 15495    1
 14644 15494 15496    1
 14645 15497 15498    1
 14646 15497 15499    1
 14647 15500 15501    1
 14648 15500 15502    1
 14649 15503 15504    1
 14650 15503 15505    1
 14651 15506 15507    1
 14652 15506 15508    1
 14653 15509 15510    1
 14654 15509 15511    1
 14655 15512 15513    1
 14656 15512 15514    1
 14657 15515 15516    1
 14658 15515 15517    1
 14659 15518 15519    1
 14660 15518 15520    1
 14661 15521 15522    1
 14662 15521 15523    1
 14663 15524 15525    1
 14664 15524 15526    1
 14665 15527 15528    1
 14666 15527 15529    1
 14667 15530 15531    1
 14668 15530 15532    1
 14669 15533 15534    1
 14670 15533 15535    1
 14671 15536 15537    1
 14672 15536 15538    1
 14673 15539 15540    1
 14674 15539 15541    1
 14675 15542 15543    1
 14676 15542 15544    1
 14677 15545 15546    1
 14678 15545 15547    1
 14679 15548 15549    1
 14680 15548 15550    1
 14681 15551 15552    1
 14682 15551 15553    1
 14683 15554 15555    1
 14684 15554 15556    1
 14685 15557 15558    1
 14686 15557 15559    1
 14687 15560 15561    1
 14688 15560 15562    1
 14689 15563 15564    1
 14690 15563 15565    1
 14691 15566 15567    1
 14692 15566 15568    1
 14693 15569 15570    1
 14694 15569 15571    1
 14695 15572 15573    1
 14696 15572 15574    1
 14697 15575 15576    1
 14698 15575 15577    1
 14699 15578 15579    1
 14700 15578 15580    1
 14701 15581 15582    1
 14702 15581 15583    1
 14703 15584 15585    1
 14704 15584 15586    1
 14705 15587 15588    1
 14706 15587 15589    1
 14707 15590 15591    1
 14708 15590 15592    1
 14709 15593 15594    1
 14710 15593 15595    1
 14711 15596 15597    1
 14712 15596 15598    1
 14713 15599 15600    1
 14714 15599 15601    1
 14715 15602 15603    1
 14716 15602 15604    1
 14717 15605 15606    1
 14718 15605 15607    1
 14719 15608 15609    1
 14720 15608 15610    1
 14721 15611 15612    1
 14722 15611 15613    1
 14723 15614 15615    1
 14724 15614 15616    1
 14725 15617 15618    1
 14726 15617 15619    1
 14727 15620 15621    1
 14728 15620 15622    1
 14729 15623 15624    1
 14730 15623 15625    1
 14731 15626 15627    1
 14732 15626 15628    1
 14733 15629 15630    1
 14734 15629 15631    1
 14735 15632 15633    1
 14736 15632 15634    1
 14737 15635 15636    1
 14738 15635 15637    1
 14739 15638 15639    1
 14740 15638 15640    1
 14741 15641 15642    1
 14742 15641 15643    1
 14743 15644 15645    1
 14744 15644 15646    1
 14745 15647 15648    1
 14746 15647 15649    1
 14747 15650 15651    1
 14748 15650 15652    1
 14749 15653 15654    1
 14750 15653 15655    1
 14751 15656 15657    1
 14752 15656 15658    1
 14753 15659 15660    1
 14754 15659 15661    1
 14755 15662 15663    1
 14756 15662 15664    1
 14757 15665 15666    1
 14758 15665 15667    1
 14759 15668 15669    1
 14760 15668 15670    1
 14761 15671 15672    1
 14762 15671 15673    1
 14763 15674 15675    1
 14764 15674 15676    1
 14765 15677 15678    1
 14766 15677 15679    1
 14767 15680 15681    1
 14768 15680 15682    1
 14769 15683 15684    1
 14770 15683 15685    1
 14771 15686 15687    1
 14772 15686 15688    1
 14773 15689 15690    1
 14774 15689 15691    1
 14775 15692 15693    1
 14776 15692 15694    1
 14777 15695 15696    1
 14778 15695 15697    1
 14779 15698 15699    1
 14780 15698 15700    1
 14781 15701 15702    1
 14782 15701 15703    1
 14783 15704 15705    1
 14784 15704 15706    1
 14785 15707 15708    1
 14786 15707 15709    1
 14787 15710 15711    1
 14788 15710 15712    1
 14789 15713 15714    1
 14790 15713 15715    1
 14791 15716 15717    1
 14792 15716 15718    1
 14793 15719 15720    1
 14794 15719 15721    1
 14795 15722 15723    1
 14796 15722 15724    1
 14797 15725 15726    1
 14798 15725 15727    1
 14799 15728 15729    1
 14800 15728 15730    1
 14801 15731 15732    1
 14802 15731 15733    1
 14803 15734 15735    1
 14804 15734 15736    1
 14805 15737 15738    1
 14806 15737 15739    1
 14807 15740 15741    1
 14808 15740 15742    1
 14809 15743 15744    1
 14810 15743 15745    1
 14811 15746 15747    1
 14812 15746 15748    1
 14813 15749 15750    1
 14814 15749 15751    1
 14815 15752 15753    1
 14816 15752 15754    1
 14817 15755 15756    1
 14818 15755 15757    1
 14819 15758 15759    1
 14820 15758 15760    1
 14821 15761 15762    1
 14822 15761 15763    1
 14823 15764 15765    1
 14824 15764 15766    1
 14825 15767 15768    1
 14826 15767 15769    1
 14827 15770 15771    1
 14828 15770 15772    1
 14829 15773 15774    1
 14830 15773 15775    1
 14831 15776 15777    1
 14832 15776 15778    1
 14833 15779 15780    1
 14834 15779 15781    1
 14835 15782 15783    1
 14836 15782 15784    1
 14837 15785 15786    1
 14838 15785 15787    1
 14839 15788 15789    1
 14840 15788 15790    1
 14841 15791 15792    1
 14842 15791 15793    1
 14843 15794 15795    1
 14844 15794 15796    1
 14845 15797 15798    1
 14846 15797 15799    1
 14847 15800 15801    1
 14848 15800 15802    1
 14849 15803 15804    1
 14850 15803 15805    1
 14851 15806 15807    1
 14852 15806 15808    1
 14853 15809 15810    1
 14854 15809 15811    1
 14855 15812 15813    1
 14856 15812 15814    1
 14857 15815 15816    1
 14858 15815 15817    1
 14859 15818 15819    1
 14860 15818 15820    1
 14861 15821 15822    1
 14862 15821 15823    1
 14863 15824 15825    1
 14864 15824 15826    1
 14865 15827 15828    1
 14866 15827 15829    1
 14867 15830 15831    1
 14868 15830 15832    1
 14869 15833 15834    1
 14870 15833 15835    1
 14871 15836 15837    1
 14872 15836 15838    1
 14873 15839 15840    1
 14874 15839 15841    1
 14875 15842 15843    1
 14876 15842 15844    1
 14877 15845 15846    1
 14878 15845 15847    1
 14879 15848 15849    1
 14880 15848 15850    1
 14881 15851 15852    1
 14882 15851 15853    1
 14883 15854 15855    1
 14884 15854 15856    1
 14885 15857 15858    1
 14886 15857 15859    1
 14887 15860 15861    1
 14888 15860 15862    1
 14889 15863 15864    1
 14890 15863 15865    1
 14891 15866 15867    1
 14892 15866 15868    1
 14893 15869 15870    1
 14894 15869 15871    1
 14895 15872 15873    1
 14896 15872 15874    1
 14897 15875 15876    1
 14898 15875 15877    1
 14899 15878 15879    1
 14900 15878 15880    1
 14901 15881 15882    1
 14902 15881 15883    1
 14903 15884 15885    1
 14904 15884 15886    1
 14905 15887 15888    1
 14906 15887 15889    1
 14907 15890 15891    1
 14908 15890 15892    1
 14909 15893 15894    1
 14910 15893 15895    1
 14911 15896 15897    1
 14912 15896 15898    1
 14913 15899 15900    1
 14914 15899 15901    1
 14915 15902 15903    1
 14916 15902 15904    1
 14917 15905 15906    1
 14918 15905 15907    1
 14919 15908 15909    1
 14920 15908 15910    1
 14921 15911 15912    1
 14922 15911 15913    1
 14923 15914 15915    1
 14924 15914 15916    1
 14925 15917 15918    1
 14926 15917 15919    1
 14927 15920 15921    1
 14928 15920 15922    1
 14929 15923 15924    1
 14930 15923 15925    1
 14931 15926 15927    1
 14932 15926 15928    1
 14933 15929 15930    1
 14934 15929 15931    1
 14935 15932 15933    1
 14936 15932 15934    1
 14937 15935 15936    1
 14938 15935 15937    1
 14939 15938 15939    1
 14940 15938 15940    1
 14941 15941 15942    1
 14942 15941 15943    1
 14943 15944 15945    1
 14944 15944 15946    1
 14945 15947 15948    1
 14946 15947 15949    1
 14947 15950 15951    1
 14948 15950 15952    1
 14949 15953 15954    1
 14950 15953 15955    1
 14951 15956 15957    1
 14952 15956 15958    1
 14953 15959 15960    1
 14954 15959 15961    1
 14955 15962 15963    1
 14956 15962 15964    1
 14957 15965 15966    1
 14958 15965 15967    1
 14959 15968 15969    1
 14960 15968 15970    1
 14961 15971 15972    1
 14962 15971 15973    1
 14963 15974 15975    1
 14964 15974 15976    1
 14965 15977 15978    1
 14966 15977 15979    1
 14967 15980 15981    1
 14968 15980 15982    1
 14969 15983 15984    1
 14970 15983 15985    1
 14971 15986 15987    1
 14972 15986 15988    1
 14973 15989 15990    1
 14974 15989 15991    1
 14975 15992 15993    1
 14976 15992 15994    1
 14977 15995 15996    1
 14978 15995 15997    1
 14979 15998 15999    1
 14980 15998 16000    1
 14981 16001 16002    1
 14982 16001 16003    1
 14983 16004 16005    1
 14984 16004 16006    1
 14985 16007 16008    1
 14986 16007 16009    1
 14987 16010 16011    1
 14988 16010 16012    1
 14989 16013 16014    1
 14990 16013 16015    1
 14991 16016 16017    1
 14992 16016 16018    1
 14993 16019 16020    1
 14994 16019 16021    1
 14995 16022 16023    1
 14996 16022 16024    1
 14997 16025 16026    1
 14998 16025 16027    1
 14999 16028 16029    1
 15000 16028 16030    1
 15001 16031 16032    1
 15002 16031 16033    1
 15003 16034 16035    1
 15004 16034 16036    1
 15005 16037 16038    1
 15006 16037 16039    1
 15007 16040 16041    1
 15008 16040 16042    1
 15009 16043 16044    1
 15010 16043 16045    1
 15011 16046 16047    1
 15012 16046 16048    1
 15013 16049 16050    1
 15014 16049 16051    1
 15015 16052 16053    1
 15016 16052 16054    1
 15017 16055 16056    1
 15018 16055 16057    1
 15019 16058 16059    1
 15020 16058 16060    1
 15021 16061 16062    1
 15022 16061 16063    1
 15023 16064 16065    1
 15024 16064 16066    1
 15025 16067 16068    1
 15026 16067 16069    1
 15027 16070 16071    1
 15028 16070 16072    1
 15029 16073 16074    1
 15030 16073 16075    1
 15031 16076 16077    1
 15032 16076 16078    1
 15033 16079 16080    1
 15034 16079 16081    1
 15035 16082 16083    1
 15036 16082 16084    1
 15037 16085 16086    1
 15038 16085 16087    1
 15039 16088 16089    1
 15040 16088 16090    1
 15041 16091 16092    1
 15042 16091 16093    1
 15043 16094 16095    1
 15044 16094 16096    1
 15045 16097 16098    1
 15046 16097 16099    1
 15047 16100 16101    1
 15048 16100 16102    1
 15049 16103 16104    1
 15050 16103 16105    1
 15051 16106 16107    1
 15052 16106 16108    1
 15053 16109 16110    1
 15054 16109 16111    1
 15055 16112 16113    1
 15056 16112 16114    1
 15057 16115 16116    1
 15058 16115 16117    1
 15059 16118 16119    1
 15060 16118 16120    1
 15061 16121 16122    1
 15062 16121 16123    1
 15063 16124 16125    1
 15064 16124 16126    1
 15065 16127 16128    1
 15066 16127 16129    1
 15067 16130 16131    1
 15068 16130 16132    1
 15069 16133 16134    1
 15070 16133 16135    1
 15071 16136 16137    1
 15072 16136 16138    1
 15073 16139 16140    1
 15074 16139 16141    1
 15075 16142 16143    1
 15076 16142 16144    1
 15077 16145 16146    1
 15078 16145 16147    1
 15079 16148 16149    1
 15080 16148 16150    1
 15081 16151 16152    1
 15082 16151 16153    1
 15083 16154 16155    1
 15084 16154 16156    1
 15085 16157 16158    1
 15086 16157 16159    1
 15087 16160 16161    1
 15088 16160 16162    1
 15089 16163 16164    1
 15090 16163 16165    1
 15091 16166 16167    1
 15092 16166 16168    1
 15093 16169 16170    1
 15094 16169 16171    1
 15095 16172 16173    1
 15096 16172 16174    1
 15097 16175 16176    1
 15098 16175 16177    1
 15099 16178 16179    1
 15100 16178 16180    1
 15101 16181 16182    1
 15102 16181 16183    1
 15103 16184 16185    1
 15104 16184 16186    1
 15105 16187 16188    1
 15106 16187 16189    1
 15107 16190 16191    1
 15108 16190 16192    1
 15109 16193 16194    1
 15110 16193 16195    1
 15111 16196 16197    1
 15112 16196 16198    1
 15113 16199 16200    1
 15114 16199 16201    1
 15115 16202 16203    1
 15116 16202 16204    1
 15117 16205 16206    1
 15118 16205 16207    1
 15119 16208 16209    1
 15120 16208 16210    1
 15121 16211 16212    1
 15122 16211 16213    1
 15123 16214 16215    1
 15124 16214 16216    1
 15125 16217 16218    1
 15126 16217 16219    1
 15127 16220 16221    1
 15128 16220 16222    1
 15129 16223 16224    1
 15130 16223 16225    1
 15131 16226 16227    1
 15132 16226 16228    1
 15133 16229 16230    1
 15134 16229 16231    1
 15135 16232 16233    1
 15136 16232 16234    1
 15137 16235 16236    1
 15138 16235 16237    1
 15139 16238 16239    1
 15140 16238 16240    1
 15141 16241 16242    1
 15142 16241 16243    1
 15143 16244 16245    1
 15144 16244 16246    1
 15145 16247 16248    1
 15146 16247 16249    1
 15147 16250 16251    1
 15148 16250 16252    1
 15149 16253 16254    1
 15150 16253 16255    1
 15151 16256 16257    1
 15152 16256 16258    1
 15153 16259 16260    1
 15154 16259 16261    1
 15155 16262 16263    1
 15156 16262 16264    1
 15157 16265 16266    1
 15158 16265 16267    1
 15159 16268 16269    1
 15160 16268 16270    1
 15161 16271 16272    1
 15162 16271 16273    1
 15163 16274 16275    1
 15164 16274 16276    1
 15165 16277 16278    1
 15166 16277 16279    1
 15167 16280 16281    1
 15168 16280 16282    1
 15169 16283 16284    1
 15170 16283 16285    1
 15171 16286 16287    1
 15172 16286 16288    1
 15173 16289 16290    1
 15174 16289 16291    1
 15175 16292 16293    1
 15176 16292 16294    1
 15177 16295 16296    1
 15178 16295 16297    1
 15179 16298 16299    1
 15180 16298 16300    1
 15181 16301 16302    1
 15182 16301 16303    1
 15183 16304 16305    1
 15184 16304 16306    1
 15185 16307 16308    1
 15186 16307 16309    1
 15187 16310 16311    1
 15188 16310 16312    1
 15189 16313 16314    1
 15190 16313 16315    1
 15191 16316 16317    1
 15192 16316 16318    1
 15193 16319 16320    1
 15194 16319 16321    1
 15195 16322 16323    1
 15196 16322 16324    1
 15197 16325 16326    1
 15198 16325 16327    1
 15199 16328 16329    1
 15200 16328 16330    1
 15201 16331 16332    1
 15202 16331 16333    1
 15203 16334 16335    1
 15204 16334 16336    1
 15205 16337 16338    1
 15206 16337 16339    1
 15207 16340 16341    1
 15208 16340 16342    1
 15209 16343 16344    1
 15210 16343 16345    1
 15211 16346 16347    1
 15212 16346 16348    1
 15213 16349 16350    1
 15214 16349 16351    1
 15215 16352 16353    1
 15216 16352 16354    1
 15217 16355 16356    1
 15218 16355 16357    1
 15219 16358 16359    1
 15220 16358 16360    1
 15221 16361 16362    1
 15222 16361 16363    1
 15223 16364 16365    1
 15224 16364 16366    1
 15225 16367 16368    1
 15226 16367 16369    1
 15227 16370 16371    1
 15228 16370 16372    1
 15229 16373 16374    1
 15230 16373 16375    1
 15231 16376 16377    1
 15232 16376 16378    1
 15233 16379 16380    1
 15234 16379 16381    1
 15235 16382 16383    1
 15236 16382 16384    1
 15237 16385 16386    1
 15238 16385 16387    1
 15239 16388 16389    1
 15240 16388 16390    1
 15241 16391 16392    1
 15242 16391 16393    1
 15243 16394 16395    1
 15244 16394 16396    1
 15245 16397 16398    1
 15246 16397 16399    1
 15247 16400 16401    1
 15248 16400 16402    1
 15249 16403 16404    1
 15250 16403 16405    1
 15251 16406 16407    1
 15252 16406 16408    1
 15253 16409 16410    1
 15254 16409 16411    1
 15255 16412 16413    1
 15256 16412 16414    1
 15257 16415 16416    1
 15258 16415 16417    1
 15259 16418 16419    1
 15260 16418 16420    1
 15261 16421 16422    1
 15262 16421 16423    1
 15263 16424 16425    1
 15264 16424 16426    1
 15265 16427 16428    1
 15266 16427 16429    1
 15267 16430 16431    1
 15268 16430 16432    1
 15269 16433 16434    1
 15270 16433 16435    1
 15271 16436 16437    1
 15272 16436 16438    1
 15273 16439 16440    1
 15274 16439 16441    1
 15275 16442 16443    1
 15276 16442 16444    1
 15277 16445 16446    1
 15278 16445 16447    1
 15279 16448 16449    1
 15280 16448 16450    1
 15281 16451 16452    1
 15282 16451 16453    1
 15283 16454 16455    1
 15284 16454 16456    1
 15285 16457 16458    1
 15286 16457 16459    1
 15287 16460 16461    1
 15288 16460 16462    1
 15289 16463 16464    1
 15290 16463 16465    1
 15291 16466 16467    1
 15292 16466 16468    1
 15293 16469 16470    1
 15294 16469 16471    1
 15295 16472 16473    1
 15296 16472 16474    1
 15297 16475 16476    1
 15298 16475 16477    1
 15299 16478 16479    1
 15300 16478 16480    1
 15301 16481 16482    1
 15302 16481 16483    1
 15303 16484 16485    1
 15304 16484 16486    1
 15305 16487 16488    1
 15306 16487 16489    1
 15307 16490 16491    1
 15308 16490 16492    1
 15309 16493 16494    1
 15310 16493 16495    1
 15311 16496 16497    1
 15312 16496 16498    1
 15313 16499 16500    1
 15314 16499 16501    1
 15315 16502 16503    1
 15316 16502 16504    1
 15317 16505 16506    1
 15318 16505 16507    1
 15319 16508 16509    1
 15320 16508 16510    1
 15321 16511 16512    1
 15322 16511 16513    1
 15323 16514 16515    1
 15324 16514 16516    1
 15325 16517 16518    1
 15326 16517 16519    1
 15327 16520 16521    1
 15328 16520 16522    1
 15329 16523 16524    1
 15330 16523 16525    1
 15331 16526 16527    1
 15332 16526 16528    1
 15333 16529 16530    1
 15334 16529 16531    1
 15335 16532 16533    1
 15336 16532 16534    1
 15337 16535 16536    1
 15338 16535 16537    1
 15339 16538 16539    1
 15340 16538 16540    1
 15341 16541 16542    1
 15342 16541 16543    1
 15343 16544 16545    1
 15344 16544 16546    1
 15345 16547 16548    1
 15346 16547 16549    1
 15347 16550 16551    1
 15348 16550 16552    1
 15349 16553 16554    1
 15350 16553 16555    1
 15351 16556 16557    1
 15352 16556 16558    1
 15353 16559 16560    1
 15354 16559 16561    1
 15355 16562 16563    1
 15356 16562 16564    1
 15357 16565 16566    1
 15358 16565 16567    1
 15359 16568 16569    1
 15360 16568 16570    1
 15361 16571 16572    1
 15362 16571 16573    1
 15363 16574 16575    1
 15364 16574 16576    1
 15365 16577 16578    1
 15366 16577 16579    1
 15367 16580 16581    1
 15368 16580 16582    1
 15369 16583 16584    1
 15370 16583 16585    1
 15371 16586 16587    1
 15372 16586 16588    1
 15373 16589 16590    1
 15374 16589 16591    1
 15375 16592 16593    1
 15376 16592 16594    1
 15377 16595 16596    1
 15378 16595 16597    1
 15379 16598 16599    1
 15380 16598 16600    1
 15381 16601 16602    1
 15382 16601 16603    1
 15383 16604 16605    1
 15384 16604 16606    1
 15385 16607 16608    1
 15386 16607 16609    1
 15387 16610 16611    1
 15388 16610 16612    1
 15389 16613 16614    1
 15390 16613 16615    1
 15391 16616 16617    1
 15392 16616 16618    1
 15393 16619 16620    1
 15394 16619 16621    1
 15395 16622 16623    1
 15396 16622 16624    1
 15397 16625 16626    1
 15398 16625 16627    1
 15399 16628 16629    1
 15400 16628 16630    1
 15401 16631 16632    1
 15402 16631 16633    1
 15403 16634 16635    1
 15404 16634 16636    1
 15405 16637 16638    1
 15406 16637 16639    1
 15407 16640 16641    1
 15408 16640 16642    1
 15409 16643 16644    1
 15410 16643 16645    1
 15411 16646 16647    1
 15412 16646 16648    1
 15413 16649 16650    1
 15414 16649 16651    1
 15415 16652 16653    1
 15416 16652 16654    1
 15417 16655 16656    1
 15418 16655 16657    1
 15419 16658 16659    1
 15420 16658 16660    1
 15421 16661 16662    1
 15422 16661 16663    1
 15423 16664 16665    1
 15424 16664 16666    1
 15425 16667 16668    1
 15426 16667 16669    1
 15427 16670 16671    1
 15428 16670 16672    1
 15429 16673 16674    1
 15430 16673 16675    1
 15431 16676 16677    1
 15432 16676 16678    1
 15433 16679 16680    1
 15434 16679 16681    1
 15435 16682 16683    1
 15436 16682 16684    1
 15437 16685 16686    1
 15438 16685 16687    1
 15439 16688 16689    1
 15440 16688 16690    1
 15441 16691 16692    1
 15442 16691 16693    1
 15443 16694 16695    1
 15444 16694 16696    1
 15445 16697 16698    1
 15446 16697 16699    1
 15447 16700 16701    1
 15448 16700 16702    1
 15449 16703 16704    1
 15450 16703 16705    1
 15451 16706 16707    1
 15452 16706 16708    1
 15453 16709 16710    1
 15454 16709 16711    1
 15455 16712 16713    1
 15456 16712 16714    1
 15457 16715 16716    1
 15458 16715 16717    1
 15459 16718 16719    1
 15460 16718 16720    1
 15461 16721 16722    1
 15462 16721 16723    1
 15463 16724 16725    1
 15464 16724 16726    1
 15465 16727 16728    1
 15466 16727 16729    1
 15467 16730 16731    1
 15468 16730 16732    1
 15469 16733 16734    1
 15470 16733 16735    1
 15471 16736 16737    1
 15472 16736 16738    1
 15473 16739 16740    1
 15474 16739 16741    1
 15475 16742 16743    1
 15476 16742 16744    1
 15477 16745 16746    1
 15478 16745 16747    1
 15479 16748 16749    1
 15480 16748 16750    1
 15481 16751 16752    1
 15482 16751 16753    1
 15483 16754 16755    1
 15484 16754 16756    1
 15485 16757 16758    1
 15486 16757 16759    1
 15487 16760 16761    1
 15488 16760 16762    1
 15489 16763 16764    1
 15490 16763 16765    1
 15491 16766 16767    1
 15492 16766 16768    1
 15493 16769 16770    1
 15494 16769 16771    1
 15495 16772 16773    1
 15496 16772 16774    1
 15497 16775 16776    1
 15498 16775 16777    1
 15499 16778 16779    1
 15500 16778 16780    1
 15501 16781 16782    1
 15502 16781 16783    1
 15503 16784 16785    1
 15504 16784 16786    1
 15505 16787 16788    1
 15506 16787 16789    1
 15507 16790 16791    1
 15508 16790 16792    1
 15509 16793 16794    1
 15510 16793 16795    1
 15511 16796 16797    1
 15512 16796 16798    1
 15513 16799 16800    1
 15514 16799 16801    1
 15515 16802 16803    1
 15516 16802 16804    1
 15517 16805 16806    1
 15518 16805 16807    1
 15519 16808 16809    1
 15520 16808 16810    1
 15521 16811 16812    1
 15522 16811 16813    1
 15523 16814 16815    1
 15524 16814 16816    1
 15525 16817 16818    1
 15526 16817 16819    1
 15527 16820 16821    1
 15528 16820 16822    1
 15529 16823 16824    1
 15530 16823 16825    1
 15531 16826 16827    1
 15532 16826 16828    1
 15533 16829 16830    1
 15534 16829 16831    1
 15535 16832 16833    1
 15536 16832 16834    1
 15537 16835 16836    1
 15538 16835 16837    1
 15539 16838 16839    1
 15540 16838 16840    1
 15541 16841 16842    1
 15542 16841 16843    1
 15543 16844 16845    1
 15544 16844 16846    1
 15545 16847 16848    1
 15546 16847 16849    1
 15547 16850 16851    1
 15548 16850 16852    1
 15549 16853 16854    1
 15550 16853 16855    1
 15551 16856 16857    1
 15552 16856 16858    1
 15553 16859 16860    1
 15554 16859 16861    1
 15555 16862 16863    1
 15556 16862 16864    1
 15557 16865 16866    1
 15558 16865 16867    1
 15559 16868 16869    1
 15560 16868 16870    1
 15561 16871 16872    1
 15562 16871 16873    1
 15563 16874 16875    1
 15564 16874 16876    1
 15565 16877 16878    1
 15566 16877 16879    1
 15567 16880 16881    1
 15568 16880 16882    1
 15569 16883 16884    1
 15570 16883 16885    1
 15571 16886 16887    1
 15572 16886 16888    1
 15573 16889 16890    1
 15574 16889 16891    1
 15575 16892 16893    1
 15576 16892 16894    1
 15577 16895 16896    1
 15578 16895 16897    1
 15579 16898 16899    1
 15580 16898 16900    1
 15581 16901 16902    1
 15582 16901 16903    1
 15583 16904 16905    1
 15584 16904 16906    1
 15585 16907 16908    1
 15586 16907 16909    1
 15587 16910 16911    1
 15588 16910 16912    1
 15589 16913 16914    1
 15590 16913 16915    1
 15591 16916 16917    1
 15592 16916 16918    1
 15593 16919 16920    1
 15594 16919 16921    1
 15595 16922 16923    1
 15596 16922 16924    1
 15597 16925 16926    1
 15598 16925 16927    1
 15599 16928 16929    1
 15600 16928 16930    1
 15601 16931 16932    1
 15602 16931 16933    1
 15603 16934 16935    1
 15604 16934 16936    1
 15605 16937 16938    1
 15606 16937 16939    1
 15607 16940 16941    1
 15608 16940 16942    1
 15609 16943 16944    1
 15610 16943 16945    1
 15611 16946 16947    1
 15612 16946 16948    1
 15613 16949 16950    1
 15614 16949 16951    1
 15615 16952 16953    1
 15616 16952 16954    1
 15617 16955 16956    1
 15618 16955 16957    1
 15619 16958 16959    1
 15620 16958 16960    1
 15621 16961 16962    1
 15622 16961 16963    1
 15623 16964 16965    1
 15624 16964 16966    1
 15625 16967 16968    1
 15626 16967 16969    1
 15627 16970 16971    1
 15628 16970 16972    1
 15629 16973 16974    1
 15630 16973 16975    1
 15631 16976 16977    1
 15632 16976 16978    1
 15633 16979 16980    1
 15634 16979 16981    1
 15635 16982 16983    1
 15636 16982 16984    1
 15637 16985 16986    1
 15638 16985 16987    1
 15639 16988 16989    1
 15640 16988 16990    1
 15641 16991 16992    1
 15642 16991 16993    1
 15643 16994 16995    1
 15644 16994 16996    1
 15645 16997 16998    1
 15646 16997 16999    1
 15647 17000 17001    1
 15648 17000 17002    1
 15649 17003 17004    1
 15650 17003 17005    1
 15651 17006 17007    1
 15652 17006 17008    1
 15653 17009 17010    1
 15654 17009 17011    1
 15655 17012 17013    1
 15656 17012 17014    1
 15657 17015 17016    1
 15658 17015 17017    1
 15659 17018 17019    1
 15660 17018 17020    1
 15661 17021 17022    1
 15662 17021 17023    1
 15663 17024 17025    1
 15664 17024 17026    1
 15665 17027 17028    1
 15666 17027 17029    1
 15667 17030 17031    1
 15668 17030 17032    1
 15669 17033 17034    1
 15670 17033 17035    1
 15671 17036 17037    1
 15672 17036 17038    1
 15673 17039 17040    1
 15674 17039 17041    1
 15675 17042 17043    1
 15676 17042 17044    1
 15677 17045 17046    1
 15678 17045 17047    1
 15679 17048 17049    1
 15680 17048 17050    1
 15681 17051 17052    1
 15682 17051 17053    1
 15683 17054 17055    1
 15684 17054 17056    1
 15685 17057 17058    1
 15686 17057 17059    1
 15687 17060 17061    1
 15688 17060 17062    1
 15689 17063 17064    1
 15690 17063 17065    1
 15691 17066 17067    1
 15692 17066 17068    1
 15693 17069 17070    1
 15694 17069 17071    1
 15695 17072 17073    1
 15696 17072 17074    1
 15697 17075 17076    1
 15698 17075 17077    1
 15699 17078 17079    1
 15700 17078 17080    1
 15701 17081 17082    1
 15702 17081 17083    1
 15703 17084 17085    1
 15704 17084 17086    1
 15705 17087 17088    1
 15706 17087 17089    1
 15707 17090 17091    1
 15708 17090 17092    1
 15709 17093 17094    1
 15710 17093 17095    1
 15711 17096 17097    1
 15712 17096 17098    1
 15713 17099 17100    1
 15714 17099 17101    1
 15715 17102 17103    1
 15716 17102 17104    1
 15717 17105 17106    1
 15718 17105 17107    1
 15719 17108 17109    1
 15720 17108 17110    1
 15721 17111 17112    1
 15722 17111 17113    1
 15723 17114 17115    1
 15724 17114 17116    1
 15725 17117 17118    1
 15726 17117 17119    1
 15727 17120 17121    1
 15728 17120 17122    1
 15729 17123 17124    1
 15730 17123 17125    1
 15731 17126 17127    1
 15732 17126 17128    1
 15733 17129 17130    1
 15734 17129 17131    1
 15735 17132 17133    1
 15736 17132 17134    1
 15737 17135 17136    1
 15738 17135 17137    1
 15739 17138 17139    1
 15740 17138 17140    1
 15741 17141 17142    1
 15742 17141 17143    1
 15743 17144 17145    1
 15744 17144 17146    1
 15745 17147 17148    1
 15746 17147 17149    1
 15747 17150 17151    1
 15748 17150 17152    1
 15749 17153 17154    1
 15750 17153 17155    1
 15751 17156 17157    1
 15752 17156 17158    1
 15753 17159 17160    1
 15754 17159 17161    1
 15755 17162 17163    1
 15756 17162 17164    1
 15757 17165 17166    1
 15758 17165 17167    1
 15759 17168 17169    1
 15760 17168 17170    1
 15761 17171 17172    1
 15762 17171 17173    1
 15763 17174 17175    1
 15764 17174 17176    1
 15765 17177 17178    1
 15766 17177 17179    1
 15767 17180 17181    1
 15768 17180 17182    1
 15769 17183 17184    1
 15770 17183 17185    1
 15771 17186 17187    1
 15772 17186 17188    1
 15773 17189 17190    1
 15774 17189 17191    1
 15775 17192 17193    1
 15776 17192 17194    1
 15777 17195 17196    1
 15778 17195 17197    1
 15779 17198 17199    1
 15780 17198 17200    1
 15781 17201 17202    1
 15782 17201 17203    1
 15783 17204 17205    1
 15784 17204 17206    1
 15785 17207 17208    1
 15786 17207 17209    1
 15787 17210 17211    1
 15788 17210 17212    1
 15789 17213 17214    1
 15790 17213 17215    1
 15791 17216 17217    1
 15792 17216 17218    1
 15793 17219 17220    1
 15794 17219 17221    1
 15795 17222 17223    1
 15796 17222 17224    1
 15797 17225 17226    1
 15798 17225 17227    1
 15799 17228 17229    1
 15800 17228 17230    1
 15801 17231 17232    1
 15802 17231 17233    1
 15803 17234 17235    1
 15804 17234 17236    1
 15805 17237 17238    1
 15806 17237 17239    1
 15807 17240 17241    1
 15808 17240 17242    1
 15809 17243 17244    1
 15810 17243 17245    1
 15811 17246 17247    1
 15812 17246 17248    1
 15813 17249 17250    1
 15814 17249 17251    1
 15815 17252 17253    1
 15816 17252 17254    1
 15817 17255 17256    1
 15818 17255 17257    1
 15819 17258 17259    1
 15820 17258 17260    1
 15821 17261 17262    1
 15822 17261 17263    1
 15823 17264 17265    1
 15824 17264 17266    1
 15825 17267 17268    1
 15826 17267 17269    1
 15827 17270 17271    1
 15828 17270 17272    1
 15829 17273 17274    1
 15830 17273 17275    1
 15831 17276 17277    1
 15832 17276 17278    1
 15833 17279 17280    1
 15834 17279 17281    1
 15835 17282 17283    1
 15836 17282 17284    1
 15837 17285 17286    1
 15838 17285 17287    1
 15839 17288 17289    1
 15840 17288 17290    1
 15841 17291 17292    1
 15842 17291 17293    1
 15843 17294 17295    1
 15844 17294 17296    1
 15845 17297 17298    1
 15846 17297 17299    1
 15847 17300 17301    1
 15848 17300 17302    1
 15849 17303 17304    1
 15850 17303 17305    1
 15851 17306 17307    1
 15852 17306 17308    1
 15853 17309 17310    1
 15854 17309 17311    1
 15855 17312 17313    1
 15856 17312 17314    1
 15857 17315 17316    1
 15858 17315 17317    1
 15859 17318 17319    1
 15860 17318 17320    1
 15861 17321 17322    1
 15862 17321 17323    1
 15863 17324 17325    1
 15864 17324 17326    1
 15865 17327 17328    1
 15866 17327 17329    1
 15867 17330 17331    1
 15868 17330 17332    1
 15869 17333 17334    1
 15870 17333 17335    1
 15871 17336 17337    1
 15872 17336 17338    1
 15873 17339 17340    1
 15874 17339 17341    1
 15875 17342 17343    1
 15876 17342 17344    1
 15877 17345 17346    1
 15878 17345 17347    1
 15879 17348 17349    1
 15880 17348 17350    1
 15881 17351 17352    1
 15882 17351 17353    1
 15883 17354 17355    1
 15884 17354 17356    1
 15885 17357 17358    1
 15886 17357 17359    1
 15887 17360 17361    1
 15888 17360 17362    1
 15889 17363 17364    1
 15890 17363 17365    1
 15891 17366 17367    1
 15892 17366 17368    1
 15893 17369 17370    1
 15894 17369 17371    1
 15895 17372 17373    1
 15896 17372 17374    1
 15897 17375 17376    1
 15898 17375 17377    1
 15899 17378 17379    1
 15900 17378 17380    1
 15901 17381 17382    1
 15902 17381 17383    1
 15903 17384 17385    1
 15904 17384 17386    1
 15905 17387 17388    1
 15906 17387 17389    1
 15907 17390 17391    1
 15908 17390 17392    1
 15909 17393 17394    1
 15910 17393 17395    1
 15911 17396 17397    1
 15912 17396 17398    1
 15913 17399 17400    1
 15914 17399 17401    1
 15915 17402 17403    1
 15916 17402 17404    1
 15917 17405 17406    1
 15918 17405 17407    1
 15919 17408 17409    1
 15920 17408 17410    1
 15921 17411 17412    1
 15922 17411 17413    1
 15923 17414 17415    1
 15924 17414 17416    1
 15925 17417 17418    1
 15926 17417 17419    1
 15927 17420 17421    1
 15928 17420 17422    1
 15929 17423 17424    1
 15930 17423 17425    1
 15931 17426 17427    1
 15932 17426 17428    1
 15933 17429 17430    1
 15934 17429 17431    1
 15935 17432 17433    1
 15936 17432 17434    1
 15937 17435 17436    1
 15938 17435 17437    1
 15939 17438 17439    1
 15940 17438 17440    1
 15941 17441 17442    1
 15942 17441 17443    1
 15943 17444 17445    1
 15944 17444 17446    1
 15945 17447 17448    1
 15946 17447 17449    1
 15947 17450 17451    1
 15948 17450 17452    1
 15949 17453 17454    1
 15950 17453 17455    1
 15951 17456 17457    1
 15952 17456 17458    1
 15953 17459 17460    1
 15954 17459 17461    1
 15955 17462 17463    1
 15956 17462 17464    1
 15957 17465 17466    1
 15958 17465 17467    1
 15959 17468 17469    1
 15960 17468 17470    1
 15961 17471 17472    1
 15962 17471 17473    1
 15963 17474 17475    1
 15964 17474 17476    1
 15965 17477 17478    1
 15966 17477 17479    1
 15967 17480 17481    1
 15968 17480 17482    1
 15969 17483 17484    1
 15970 17483 17485    1
 15971 17486 17487    1
 15972 17486 17488    1
 15973 17489 17490    1
 15974 17489 17491    1
 15975 17492 17493    1
 15976 17492 17494    1
 15977 17495 17496    1
 15978 17495 17497    1
 15979 17498 17499    1
 15980 17498 17500    1
 15981 17501 17502    1
 15982 17501 17503    1
 15983 17504 17505    1
 15984 17504 17506    1
 15985 17507 17508    1
 15986 17507 17509    1
 15987 17510 17511    1
 15988 17510 17512    1
 15989 17513 17514    1
 15990 17513 17515    1
 15991 17516 17517    1
 15992 17516 17518    1
 15993 17519 17520    1
 15994 17519 17521    1
 15995 17522 17523    1
 15996 17522 17524    1
 15997 17525 17526    1
 15998 17525 17527    1
 15999 17528 17529    1
 16000 17528 17530    1
 16001 17531 17532    1
 16002 17531 17533    1
 16003 17534 17535    1
 16004 17534 17536    1
 16005 17537 17538    1
 16006 17537 17539    1
 16007 17540 17541    1
 16008 17540 17542    1
 16009 17543 17544    1
 16010 17543 17545    1
 16011 17546 17547    1
 16012 17546 17548    1
 16013 17549 17550    1
 16014 17549 17551    1
 16015 17552 17553    1
 16016 17552 17554    1
 16017 17555 17556    1
 16018 17555 17557    1
 16019 17558 17559    1
 16020 17558 17560    1
 16021 17561 17562    1
 16022 17561 17563    1
 16023 17564 17565    1
 16024 17564 17566    1
 16025 17567 17568    1
 16026 17567 17569    1
 16027 17570 17571    1
 16028 17570 17572    1
 16029 17573 17574    1
 16030 17573 17575    1
 16031 17576 17577    1
 16032 17576 17578    1
 16033 17579 17580    1
 16034 17579 17581    1
 16035 17582 17583    1
 16036 17582 17584    1
 16037 17585 17586    1
 16038 17585 17587    1
 16039 17588 17589    1
 16040 17588 17590    1
 16041 17591 17592    1
 16042 17591 17593    1
 16043 17594 17595    1
 16044 17594 17596    1
 16045 17597 17598    1
 16046 17597 17599    1
 16047 17600 17601    1
 16048 17600 17602    1
 16049 17603 17604    1
 16050 17603 17605    1
 16051 17606 17607    1
 16052 17606 17608    1
 16053 17609 17610    1
 16054 17609 17611    1
 16055 17612 17613    1
 16056 17612 17614    1
 16057 17615 17616    1
 16058 17615 17617    1
 16059 17618 17619    1
 16060 17618 17620    1
 16061 17621 17622    1
 16062 17621 17623    1
 16063 17624 17625    1
 16064 17624 17626    1
 16065 17627 17628    1
 16066 17627 17629    1
 16067 17630 17631    1
 16068 17630 17632    1
 16069 17633 17634    1
 16070 17633 17635    1
 16071 17636 17637    1
 16072 17636 17638    1
 16073 17639 17640    1
 16074 17639 17641    1
 16075 17642 17643    1
 16076 17642 17644    1
 16077 17645 17646    1
 16078 17645 17647    1
 16079 17648 17649    1
 16080 17648 17650    1
 16081 17651 17652    1
 16082 17651 17653    1
 16083 17654 17655    1
 16084 17654 17656    1
 16085 17657 17658    1
 16086 17657 17659    1
 16087 17660 17661    1
 16088 17660 17662    1
 16089 17663 17664    1
 16090 17663 17665    1
 16091 17666 17667    1
 16092 17666 17668    1
 16093 17669 17670    1
 16094 17669 17671    1
 16095 17672 17673    1
 16096 17672 17674    1
 16097 17675 17676    1
 16098 17675 17677    1
 16099 17678 17679    1
 16100 17678 17680    1
 16101 17681 17682    1
 16102 17681 17683    1
 16103 17684 17685    1
 16104 17684 17686    1
 16105 17687 17688    1
 16106 17687 17689    1
 16107 17690 17691    1
 16108 17690 17692    1
 16109 17693 17694    1
 16110 17693 17695    1
 16111 17696 17697    1
 16112 17696 17698    1
 16113 17699 17700    1
 16114 17699 17701    1
 16115 17702 17703    1
 16116 17702 17704    1
 16117 17705 17706    1
 16118 17705 17707    1
 16119 17708 17709    1
 16120 17708 17710    1
 16121 17711 17712    1
 16122 17711 17713    1
 16123 17714 17715    1
 16124 17714 17716    1
 16125 17717 17718    1
 16126 17717 17719    1
 16127 17720 17721    1
 16128 17720 17722    1
 16129 17723 17724    1
 16130 17723 17725    1
 16131 17726 17727    1
 16132 17726 17728    1
 16133 17729 17730    1
 16134 17729 17731    1
 16135 17732 17733    1
 16136 17732 17734    1
 16137 17735 17736    1
 16138 17735 17737    1
 16139 17738 17739    1
 16140 17738 17740    1
 16141 17741 17742    1
 16142 17741 17743    1
 16143 17744 17745    1
 16144 17744 17746    1
 16145 17747 17748    1
 16146 17747 17749    1
 16147 17750 17751    1
 16148 17750 17752    1
 16149 17753 17754    1
 16150 17753 17755    1
 16151 17756 17757    1
 16152 17756 17758    1
 16153 17759 17760    1
 16154 17759 17761    1
 16155 17762 17763    1
 16156 17762 17764    1
 16157 17765 17766    1
 16158 17765 17767    1
 16159 17768 17769    1
 16160 17768 17770    1
 16161 17771 17772    1
 16162 17771 17773    1
 16163 17774 17775    1
 16164 17774 17776    1
 16165 17777 17778    1
 16166 17777 17779    1
 16167 17780 17781    1
 16168 17780 17782    1
 16169 17783 17784    1
 16170 17783 17785    1
 16171 17786 17787    1
 16172 17786 17788    1
 16173 17789 17790    1
 16174 17789 17791    1
 16175 17792 17793    1
 16176 17792 17794    1
 16177 17795 17796    1
 16178 17795 17797    1
 16179 17798 17799    1
 16180 17798 17800    1
 16181 17801 17802    1
 16182 17801 17803    1
 16183 17804 17805    1
 16184 17804 17806    1
 16185 17807 17808    1
 16186 17807 17809    1
 16187 17810 17811    1
 16188 17810 17812    1
 16189 17813 17814    1
 16190 17813 17815    1
 16191 17816 17817    1
 16192 17816 17818    1
 16193 17819 17820    1
 16194 17819 17821    1
 16195 17822 17823    1
 16196 17822 17824    1
 16197 17825 17826    1
 16198 17825 17827    1
 16199 17828 17829    1
 16200 17828 17830    1
 16201 17831 17832    1
 16202 17831 17833    1
 16203 17834 17835    1
 16204 17834 17836    1
 16205 17837 17838    1
 16206 17837 17839    1
 16207 17840 17841    1
 16208 17840 17842    1
 16209 17843 17844    1
 16210 17843 17845    1
 16211 17846 17847    1
 16212 17846 17848    1
 16213 17849 17850    1
 16214 17849 17851    1
 16215 17852 17853    1
 16216 17852 17854    1
 16217 17855 17856    1
 16218 17855 17857    1
 16219 17858 17859    1
 16220 17858 17860    1
 16221 17861 17862    1
 16222 17861 17863    1
 16223 17864 17865    1
 16224 17864 17866    1
 16225 17867 17868    1
 16226 17867 17869    1
 16227 17870 17871    1
 16228 17870 17872    1
 16229 17873 17874    1
 16230 17873 17875    1
 16231 17876 17877    1
 16232 17876 17878    1
 16233 17879 17880    1
 16234 17879 17881    1
 16235 17882 17883    1
 16236 17882 17884    1
 16237 17885 17886    1
 16238 17885 17887    1
 16239 17888 17889    1
 16240 17888 17890    1
 16241 17891 17892    1
 16242 17891 17893    1
 16243 17894 17895    1
 16244 17894 17896    1
 16245 17897 17898    1
 16246 17897 17899    1
 16247 17900 17901    1
 16248 17900 17902    1
 16249 17903 17904    1
 16250 17903 17905    1
 16251 17906 17907    1
 16252 17906 17908    1
 16253 17909 17910    1
 16254 17909 17911    1
 16255 17912 17913    1
 16256 17912 17914    1
 16257 17915 17916    1
 16258 17915 17917    1
 16259 17918 17919    1
 16260 17918 17920    1
 16261 17921 17922    1
 16262 17921 17923    1
 16263 17924 17925    1
 16264 17924 17926    1
 16265 17927 17928    1
 16266 17927 17929    1
 16267 17930 17931    1
 16268 17930 17932    1
 16269 17933 17934    1
 16270 17933 17935    1
 16271 17936 17937    1
 16272 17936 17938    1
 16273 17939 17940    1
 16274 17939 17941    1
 16275 17942 17943    1
 16276 17942 17944    1
 16277 17945 17946    1
 16278 17945 17947    1
 16279 17948 17949    1
 16280 17948 17950    1
 16281 17951 17952    1
 16282 17951 17953    1
 16283 17954 17955    1
 16284 17954 17956    1
 16285 17957 17958    1
 16286 17957 17959    1
 16287 17960 17961    1
 16288 17960 17962    1
 16289 17963 17964    1
 16290 17963 17965    1
 16291 17966 17967    1
 16292 17966 17968    1
 16293 17969 17970    1
 16294 17969 17971    1
 16295 17972 17973    1
 16296 17972 17974    1
 16297 17975 17976    1
 16298 17975 17977    1
 16299 17978 17979    1
 16300 17978 17980    1
 16301 17981 17982    1
 16302 17981 17983    1
 16303 17984 17985    1
 16304 17984 17986    1
 16305 17987 17988    1
 16306 17987 17989    1
 16307 17990 17991    1
 16308 17990 17992    1
 16309 17993 17994    1
 16310 17993 17995    1
 16311 17996 17997    1
 16312 17996 17998    1
 16313 17999 18000    1
 16314 17999 18001    1
 16315 18002 18003    1
 16316 18002 18004    1
 16317 18005 18006    1
 16318 18005 18007    1
 16319 18008 18009    1
 16320 18008 18010    1
 16321 18011 18012    1
 16322 18011 18013    1
 16323 18014 18015    1
 16324 18014 18016    1
 16325 18017 18018    1
 16326 18017 18019    1
 16327 18020 18021    1
 16328 18020 18022    1
 16329 18023 18024    1
 16330 18023 18025    1
 16331 18026 18027    1
 16332 18026 18028    1
 16333 18029 18030    1
 16334 18029 18031    1
 16335 18032 18033    1
 16336 18032 18034    1
 16337 18035 18036    1
 16338 18035 18037    1
 16339 18038 18039    1
 16340 18038 18040    1
 16341 18041 18042    1
 16342 18041 18043    1
 16343 18044 18045    1
 16344 18044 18046    1
 16345 18047 18048    1
 16346 18047 18049    1
 16347 18050 18051    1
 16348 18050 18052    1
 16349 18053 18054    1
 16350 18053 18055    1
 16351 18056 18057    1
 16352 18056 18058    1
 16353 18059 18060    1
 16354 18059 18061    1
 16355 18062 18063    1
 16356 18062 18064    1
 16357 18065 18066    1
 16358 18065 18067    1
 16359 18068 18069    1
 16360 18068 18070    1
 16361 18071 18072    1
 16362 18071 18073    1
 16363 18074 18075    1
 16364 18074 18076    1
 16365 18077 18078    1
 16366 18077 18079    1
 16367 18080 18081    1
 16368 18080 18082    1
 16369 18083 18084    1
 16370 18083 18085    1
 16371 18086 18087    1
 16372 18086 18088    1
 16373 18089 18090    1
 16374 18089 18091    1
 16375 18092 18093    1
 16376 18092 18094    1
 16377 18095 18096    1
 16378 18095 18097    1
 16379 18098 18099    1
 16380 18098 18100    1
 16381 18101 18102    1
 16382 18101 18103    1
 16383 18104 18105    1
 16384 18104 18106    1
 16385 18107 18108    1
 16386 18107 18109    1
 16387 18110 18111    1
 16388 18110 18112    1
 16389 18113 18114    1
 16390 18113 18115    1
 16391 18116 18117    1
 16392 18116 18118    1
 16393 18119 18120    1
 16394 18119 18121    1
 16395 18122 18123    1
 16396 18122 18124    1
 16397 18125 18126    1
 16398 18125 18127    1
 16399 18128 18129    1
 16400 18128 18130    1
 16401 18131 18132    1
 16402 18131 18133    1
 16403 18134 18135    1
 16404 18134 18136    1
 16405 18137 18138    1
 16406 18137 18139    1
 16407 18140 18141    1
 16408 18140 18142    1
 16409 18143 18144    1
 16410 18143 18145    1
 16411 18146 18147    1
 16412 18146 18148    1
 16413 18149 18150    1
 16414 18149 18151    1
 16415 18152 18153    1
 16416 18152 18154    1
 16417 18155 18156    1
 16418 18155 18157    1
 16419 18158 18159    1
 16420 18158 18160    1
 16421 18161 18162    1
 16422 18161 18163    1
 16423 18164 18165    1
 16424 18164 18166    1
 16425 18167 18168    1
 16426 18167 18169    1
 16427 18170 18171    1
 16428 18170 18172    1
 16429 18173 18174    1
 16430 18173 18175    1
 16431 18176 18177    1
 16432 18176 18178    1
 16433 18179 18180    1
 16434 18179 18181    1
 16435 18182 18183    1
 16436 18182 18184    1
 16437 18185 18186    1
 16438 18185 18187    1
 16439 18188 18189    1
 16440 18188 18190    1
 16441 18191 18192    1
 16442 18191 18193    1
 16443 18194 18195    1
 16444 18194 18196    1
 16445 18197 18198    1
 16446 18197 18199    1
 16447 18200 18201    1
 16448 18200 18202    1
 16449 18203 18204    1
 16450 18203 18205    1
 16451 18206 18207    1
 16452 18206 18208    1
 16453 18209 18210    1
 16454 18209 18211    1
 16455 18212 18213    1
 16456 18212 18214    1
 16457 18215 18216    1
 16458 18215 18217    1
 16459 18218 18219    1
 16460 18218 18220    1
 16461 18221 18222    1
 16462 18221 18223    1
 16463 18224 18225    1
 16464 18224 18226    1
 16465 18227 18228    1
 16466 18227 18229    1
 16467 18230 18231    1
 16468 18230 18232    1
 16469 18233 18234    1
 16470 18233 18235    1
 16471 18236 18237    1
 16472 18236 18238    1
 16473 18239 18240    1
 16474 18239 18241    1
 16475 18242 18243    1
 16476 18242 18244    1
 16477 18245 18246    1
 16478 18245 18247    1
 16479 18248 18249    1
 16480 18248 18250    1
 16481 18251 18252    1
 16482 18251 18253    1
 16483 18254 18255    1
 16484 18254 18256    1
 16485 18257 18258    1
 16486 18257 18259    1
 16487 18260 18261    1
 16488 18260 18262    1
 16489 18263 18264    1
 16490 18263 18265    1
 16491 18266 18267    1
 16492 18266 18268    1
 16493 18269 18270    1
 16494 18269 18271    1
 16495 18272 18273    1
 16496 18272 18274    1
 16497 18275 18276    1
 16498 18275 18277    1
 16499 18278 18279    1
 16500 18278 18280    1
 16501 18281 18282    1
 16502 18281 18283    1
 16503 18284 18285    1
 16504 18284 18286    1
 16505 18287 18288    1
 16506 18287 18289    1
 16507 18290 18291    1
 16508 18290 18292    1
 16509 18293 18294    1
 16510 18293 18295    1
 16511 18296 18297    1
 16512 18296 18298    1
 16513 18299 18300    1
 16514 18299 18301    1
 16515 18302 18303    1
 16516 18302 18304    1
 16517 18305 18306    1
 16518 18305 18307    1
 16519 18308 18309    1
 16520 18308 18310    1
 16521 18311 18312    1
 16522 18311 18313    1
 16523 18314 18315    1
 16524 18314 18316    1
 16525 18317 18318    1
 16526 18317 18319    1
 16527 18320 18321    1
 16528 18320 18322    1
 16529 18323 18324    1
 16530 18323 18325    1
 16531 18326 18327    1
 16532 18326 18328    1
 16533 18329 18330    1
 16534 18329 18331    1
 16535 18332 18333    1
 16536 18332 18334    1
 16537 18335 18336    1
 16538 18335 18337    1
 16539 18338 18339    1
 16540 18338 18340    1
 16541 18341 18342    1
 16542 18341 18343    1
 16543 18344 18345    1
 16544 18344 18346    1
 16545 18347 18348    1
 16546 18347 18349    1
 16547 18350 18351    1
 16548 18350 18352    1
 16549 18353 18354    1
 16550 18353 18355    1
 16551 18356 18357    1
 16552 18356 18358    1
 16553 18359 18360    1
 16554 18359 18361    1
 16555 18362 18363    1
 16556 18362 18364    1
 16557 18365 18366    1
 16558 18365 18367    1
 16559 18368 18369    1
 16560 18368 18370    1
 16561 18371 18372    1
 16562 18371 18373    1
 16563 18374 18375    1
 16564 18374 18376    1
 16565 18377 18378    1
 16566 18377 18379    1
 16567 18380 18381    1
 16568 18380 18382    1
 16569 18383 18384    1
 16570 18383 18385    1
 16571 18386 18387    1
 16572 18386 18388    1
 16573 18389 18390    1
 16574 18389 18391    1
 16575 18392 18393    1
 16576 18392 18394    1
 16577 18395 18396    1
 16578 18395 18397    1
 16579 18398 18399    1
 16580 18398 18400    1
 16581 18401 18402    1
 16582 18401 18403    1
 16583 18404 18405    1
 16584 18404 18406    1
 16585 18407 18408    1
 16586 18407 18409    1
 16587 18410 18411    1
 16588 18410 18412    1
 16589 18413 18414    1
 16590 18413 18415    1
 16591 18416 18417    1
 16592 18416 18418    1
 16593 18419 18420    1
 16594 18419 18421    1
 16595 18422 18423    1
 16596 18422 18424    1
 16597 18425 18426    1
 16598 18425 18427    1
 16599 18428 18429    1
 16600 18428 18430    1
 16601 18431 18432    1
 16602 18431 18433    1
 16603 18434 18435    1
 16604 18434 18436    1
 16605 18437 18438    1
 16606 18437 18439    1
 16607 18440 18441    1
 16608 18440 18442    1
 16609 18443 18444    1
 16610 18443 18445    1
 16611 18446 18447    1
 16612 18446 18448    1
 16613 18449 18450    1
 16614 18449 18451    1
 16615 18452 18453    1
 16616 18452 18454    1
 16617 18455 18456    1
 16618 18455 18457    1
 16619 18458 18459    1
 16620 18458 18460    1
 16621 18461 18462    1
 16622 18461 18463    1
 16623 18464 18465    1
 16624 18464 18466    1
 16625 18467 18468    1
 16626 18467 18469    1
 16627 18470 18471    1
 16628 18470 18472    1
 16629 18473 18474    1
 16630 18473 18475    1
 16631 18476 18477    1
 16632 18476 18478    1
 16633 18479 18480    1
 16634 18479 18481    1
 16635 18482 18483    1
 16636 18482 18484    1
 16637 18485 18486    1
 16638 18485 18487    1
 16639 18488 18489    1
 16640 18488 18490    1
 16641 18491 18492    1
 16642 18491 18493    1
 16643 18494 18495    1
 16644 18494 18496    1
 16645 18497 18498    1
 16646 18497 18499    1
 16647 18500 18501    1
 16648 18500 18502    1
 16649 18503 18504    1
 16650 18503 18505    1
 16651 18506 18507    1
 16652 18506 18508    1
 16653 18509 18510    1
 16654 18509 18511    1
 16655 18512 18513    1
 16656 18512 18514    1
 16657 18515 18516    1
 16658 18515 18517    1
 16659 18518 18519    1
 16660 18518 18520    1
 16661 18521 18522    1
 16662 18521 18523    1
 16663 18524 18525    1
 16664 18524 18526    1
 16665 18527 18528    1
 16666 18527 18529    1
 16667 18530 18531    1
 16668 18530 18532    1
 16669 18533 18534    1
 16670 18533 18535    1
 16671 18536 18537    1
 16672 18536 18538    1
 16673 18539 18540    1
 16674 18539 18541    1
 16675 18542 18543    1
 16676 18542 18544    1
 16677 18545 18546    1
 16678 18545 18547    1
 16679 18548 18549    1
 16680 18548 18550    1
 16681 18551 18552    1
 16682 18551 18553    1
 16683 18554 18555    1
 16684 18554 18556    1
 16685 18557 18558    1
 16686 18557 18559    1
 16687 18560 18561    1
 16688 18560 18562    1
 16689 18563 18564    1
 16690 18563 18565    1
 16691 18566 18567    1
 16692 18566 18568    1
 16693 18569 18570    1
 16694 18569 18571    1
 16695 18572 18573    1
 16696 18572 18574    1
 16697 18575 18576    1
 16698 18575 18577    1
 16699 18578 18579    1
 16700 18578 18580    1
 16701 18581 18582    1
 16702 18581 18583    1
 16703 18584 18585    1
 16704 18584 18586    1
 16705 18587 18588    1
 16706 18587 18589    1
 16707 18590 18591    1
 16708 18590 18592    1
 16709 18593 18594    1
 16710 18593 18595    1
 16711 18596 18597    1
 16712 18596 18598    1
 16713 18599 18600    1
 16714 18599 18601    1
 16715 18602 18603    1
 16716 18602 18604    1
 16717 18605 18606    1
 16718 18605 18607    1
 16719 18608 18609    1
 16720 18608 18610    1
 16721 18611 18612    1
 16722 18611 18613    1
 16723 18614 18615    1
 16724 18614 18616    1
 16725 18617 18618    1
 16726 18617 18619    1
 16727 18620 18621    1
 16728 18620 18622    1
 16729 18623 18624    1
 16730 18623 18625    1
 16731 18626 18627    1
 16732 18626 18628    1
 16733 18629 18630    1
 16734 18629 18631    1
 16735 18632 18633    1
 16736 18632 18634    1
 16737 18635 18636    1
 16738 18635 18637    1
 16739 18638 18639    1
 16740 18638 18640    1
 16741 18641 18642    1
 16742 18641 18643    1
 16743 18644 18645    1
 16744 18644 18646    1
 16745 18647 18648    1
 16746 18647 18649    1
 16747 18650 18651    1
 16748 18650 18652    1
 16749 18653 18654    1
 16750 18653 18655    1
 16751 18656 18657    1
 16752 18656 18658    1
 16753 18659 18660    1
 16754 18659 18661    1
 16755 18662 18663    1
 16756 18662 18664    1
 16757 18665 18666    1
 16758 18665 18667    1
 16759 18668 18669    1
 16760 18668 18670    1
 16761 18671 18672    1
 16762 18671 18673    1
 16763 18674 18675    1
 16764 18674 18676    1
 16765 18677 18678    1
 16766 18677 18679    1
 16767 18680 18681    1
 16768 18680 18682    1
 16769 18683 18684    1
 16770 18683 18685    1
 16771 18686 18687    1
 16772 18686 18688    1
 16773 18689 18690    1
 16774 18689 18691    1
 16775 18692 18693    1
 16776 18692 18694    1
 16777 18695 18696    1
 16778 18695 18697    1
 16779 18698 18699    1
 16780 18698 18700    1
 16781 18701 18702    1
 16782 18701 18703    1
 16783 18704 18705    1
 16784 18704 18706    1
 16785 18707 18708    1
 16786 18707 18709    1
 16787 18710 18711    1
 16788 18710 18712    1
 16789 18713 18714    1
 16790 18713 18715    1
 16791 18716 18717    1
 16792 18716 18718    1
 16793 18719 18720    1
 16794 18719 18721    1
 16795 18722 18723    1
 16796 18722 18724    1
 16797 18725 18726    1
 16798 18725 18727    1
 16799 18728 18729    1
 16800 18728 18730    1
 16801 18731 18732    1
 16802 18731 18733    1
 16803 18734 18735    1
 16804 18734 18736    1
 16805 18737 18738    1
 16806 18737 18739    1
 16807 18740 18741    1
 16808 18740 18742    1
 16809 18743 18744    1
 16810 18743 18745    1
 16811 18746 18747    1
 16812 18746 18748    1
 16813 18749 18750    1
 16814 18749 18751    1
 16815 18752 18753    1
 16816 18752 18754    1
 16817 18755 18756    1
 16818 18755 18757    1
 16819 18758 18759    1
 16820 18758 18760    1
 16821 18761 18762    1
 16822 18761 18763    1
 16823 18764 18765    1
 16824 18764 18766    1
 16825 18767 18768    1
 16826 18767 18769    1
 16827 18770 18771    1
 16828 18770 18772    1
 16829 18773 18774    1
 16830 18773 18775    1
 16831 18776 18777    1
 16832 18776 18778    1
 16833 18779 18780    1
 16834 18779 18781    1
 16835 18782 18783    1
 16836 18782 18784    1
 16837 18785 18786    1
 16838 18785 18787    1
 16839 18788 18789    1
 16840 18788 18790    1
 16841 18791 18792    1
 16842 18791 18793    1
 16843 18794 18795    1
 16844 18794 18796    1
 16845 18797 18798    1
 16846 18797 18799    1
 16847 18800 18801    1
 16848 18800 18802    1
 16849 18803 18804    1
 16850 18803 18805    1
 16851 18806 18807    1
 16852 18806 18808    1
 16853 18809 18810    1
 16854 18809 18811    1
 16855 18812 18813    1
 16856 18812 18814    1
 16857 18815 18816    1
 16858 18815 18817    1
 16859 18818 18819    1
 16860 18818 18820    1
 16861 18821 18822    1
 16862 18821 18823    1
 16863 18824 18825    1
 16864 18824 18826    1
 16865 18827 18828    1
 16866 18827 18829    1
 16867 18830 18831    1
 16868 18830 18832    1
 16869 18833 18834    1
 16870 18833 18835    1
 16871 18836 18837    1
 16872 18836 18838    1
 16873 18839 18840    1
 16874 18839 18841    1
 16875 18842 18843    1
 16876 18842 18844    1
 16877 18845 18846    1
 16878 18845 18847    1
 16879 18848 18849    1
 16880 18848 18850    1
 16881 18851 18852    1
 16882 18851 18853    1
 16883 18854 18855    1
 16884 18854 18856    1
 16885 18857 18858    1
 16886 18857 18859    1
 16887 18860 18861    1
 16888 18860 18862    1
 16889 18863 18864    1
 16890 18863 18865    1
 16891 18866 18867    1
 16892 18866 18868    1
 16893 18869 18870    1
 16894 18869 18871    1
 16895 18872 18873    1
 16896 18872 18874    1
 16897 18875 18876    1
 16898 18875 18877    1
 16899 18878 18879    1
 16900 18878 18880    1
 16901 18881 18882    1
 16902 18881 18883    1
 16903 18884 18885    1
 16904 18884 18886    1
 16905 18887 18888    1
 16906 18887 18889    1
 16907 18890 18891    1
 16908 18890 18892    1
 16909 18893 18894    1
 16910 18893 18895    1
 16911 18896 18897    1
 16912 18896 18898    1
 16913 18899 18900    1
 16914 18899 18901    1
 16915 18902 18903    1
 16916 18902 18904    1
 16917 18905 18906    1
 16918 18905 18907    1
 16919 18908 18909    1
 16920 18908 18910    1
 16921 18911 18912    1
 16922 18911 18913    1
 16923 18914 18915    1
 16924 18914 18916    1
 16925 18917 18918    1
 16926 18917 18919    1
 16927 18920 18921    1
 16928 18920 18922    1
 16929 18923 18924    1
 16930 18923 18925    1
 16931 18926 18927    1
 16932 18926 18928    1
 16933 18929 18930    1
 16934 18929 18931    1
 16935 18932 18933    1
 16936 18932 18934    1
 16937 18935 18936    1
 16938 18935 18937    1
 16939 18938 18939    1
 16940 18938 18940    1
 16941 18941 18942    1
 16942 18941 18943    1
 16943 18944 18945    1
 16944 18944 18946    1
 16945 18947 18948    1
 16946 18947 18949    1
 16947 18950 18951    1
 16948 18950 18952    1
 16949 18953 18954    1
 16950 18953 18955    1
 16951 18956 18957    1
 16952 18956 18958    1
 16953 18959 18960    1
 16954 18959 18961    1
 16955 18962 18963    1
 16956 18962 18964    1
 16957 18965 18966    1
 16958 18965 18967    1
 16959 18968 18969    1
 16960 18968 18970    1
 16961 18971 18972    1
 16962 18971 18973    1
 16963 18974 18975    1
 16964 18974 18976    1
 16965 18977 18978    1
 16966 18977 18979    1
 16967 18980 18981    1
 16968 18980 18982    1
 16969 18983 18984    1
 16970 18983 18985    1
 16971 18986 18987    1
 16972 18986 18988    1
 16973 18989 18990    1
 16974 18989 18991    1
 16975 18992 18993    1
 16976 18992 18994    1
 16977 18995 18996    1
 16978 18995 18997    1
 16979 18998 18999    1
 16980 18998 19000    1
 16981 19001 19002    1
 16982 19001 19003    1
 16983 19004 19005    1
 16984 19004 19006    1
 16985 19007 19008    1
 16986 19007 19009    1
 16987 19010 19011    1
 16988 19010 19012    1
 16989 19013 19014    1
 16990 19013 19015    1
 16991 19016 19017    1
 16992 19016 19018    1
 16993 19019 19020    1
 16994 19019 19021    1
 16995 19022 19023    1
 16996 19022 19024    1
 16997 19025 19026    1
 16998 19025 19027    1
 16999 19028 19029    1
 17000 19028 19030    1
 17001 19031 19032    1
 17002 19031 19033    1
 17003 19034 19035    1
 17004 19034 19036    1
 17005 19037 19038    1
 17006 19037 19039    1
 17007 19040 19041    1
 17008 19040 19042    1
 17009 19043 19044    1
 17010 19043 19045    1
 17011 19046 19047    1
 17012 19046 19048    1
 17013 19049 19050    1
 17014 19049 19051    1
 17015 19052 19053    1
 17016 19052 19054    1
 17017 19055 19056    1
 17018 19055 19057    1
 17019 19058 19059    1
 17020 19058 19060    1
 17021 19061 19062    1
 17022 19061 19063    1
 17023 19064 19065    1
 17024 19064 19066    1
 17025 19067 19068    1
 17026 19067 19069    1
 17027 19070 19071    1
 17028 19070 19072    1
 17029 19073 19074    1
 17030 19073 19075    1
 17031 19076 19077    1
 17032 19076 19078    1
 17033 19079 19080    1
 17034 19079 19081    1
 17035 19082 19083    1
 17036 19082 19084    1
 17037 19085 19086    1
 17038 19085 19087    1
 17039 19088 19089    1
 17040 19088 19090    1
 17041 19091 19092    1
 17042 19091 19093    1
 17043 19094 19095    1
 17044 19094 19096    1
 17045 19097 19098    1
 17046 19097 19099    1
 17047 19100 19101    1
 17048 19100 19102    1
 17049 19103 19104    1
 17050 19103 19105    1
 17051 19106 19107    1
 17052 19106 19108    1
 17053 19109 19110    1
 17054 19109 19111    1
 17055 19112 19113    1
 17056 19112 19114    1
 17057 19115 19116    1
 17058 19115 19117    1
 17059 19118 19119    1
 17060 19118 19120    1
 17061 19121 19122    1
 17062 19121 19123    1
 17063 19124 19125    1
 17064 19124 19126    1
 17065 19127 19128    1
 17066 19127 19129    1
 17067 19130 19131    1
 17068 19130 19132    1
 17069 19133 19134    1
 17070 19133 19135    1
 17071 19136 19137    1
 17072 19136 19138    1
 17073 19139 19140    1
 17074 19139 19141    1
 17075 19142 19143    1
 17076 19142 19144    1
 17077 19145 19146    1
 17078 19145 19147    1
 17079 19148 19149    1
 17080 19148 19150    1
 17081 19151 19152    1
 17082 19151 19153    1
 17083 19154 19155    1
 17084 19154 19156    1
 17085 19157 19158    1
 17086 19157 19159    1
 17087 19160 19161    1
 17088 19160 19162    1
 17089 19163 19164    1
 17090 19163 19165    1
 17091 19166 19167    1
 17092 19166 19168    1
 17093 19169 19170    1
 17094 19169 19171    1
 17095 19172 19173    1
 17096 19172 19174    1
 17097 19175 19176    1
 17098 19175 19177    1
 17099 19178 19179    1
 17100 19178 19180    1
 17101 19181 19182    1
 17102 19181 19183    1
 17103 19184 19185    1
 17104 19184 19186    1
 17105 19187 19188    1
 17106 19187 19189    1
 17107 19190 19191    1
 17108 19190 19192    1
 17109 19193 19194    1
 17110 19193 19195    1
 17111 19196 19197    1
 17112 19196 19198    1
 17113 19199 19200    1
 17114 19199 19201    1
 17115 19202 19203    1
 17116 19202 19204    1
 17117 19205 19206    1
 17118 19205 19207    1
 17119 19208 19209    1
 17120 19208 19210    1
 17121 19211 19212    1
 17122 19211 19213    1
 17123 19214 19215    1
 17124 19214 19216    1
 17125 19217 19218    1
 17126 19217 19219    1
 17127 19220 19221    1
 17128 19220 19222    1
 17129 19223 19224    1
 17130 19223 19225    1
 17131 19226 19227    1
 17132 19226 19228    1
 17133 19229 19230    1
 17134 19229 19231    1
 17135 19232 19233    1
 17136 19232 19234    1
 17137 19235 19236    1
 17138 19235 19237    1
 17139 19238 19239    1
 17140 19238 19240    1
 17141 19241 19242    1
 17142 19241 19243    1
 17143 19244 19245    1
 17144 19244 19246    1
 17145 19247 19248    1
 17146 19247 19249    1
 17147 19250 19251    1
 17148 19250 19252    1
 17149 19253 19254    1
 17150 19253 19255    1
 17151 19256 19257    1
 17152 19256 19258    1
 17153 19259 19260    1
 17154 19259 19261    1
 17155 19262 19263    1
 17156 19262 19264    1
 17157 19265 19266    1
 17158 19265 19267    1
 17159 19268 19269    1
 17160 19268 19270    1
 17161 19271 19272    1
 17162 19271 19273    1
 17163 19274 19275    1
 17164 19274 19276    1
 17165 19277 19278    1
 17166 19277 19279    1
 17167 19280 19281    1
 17168 19280 19282    1
 17169 19283 19284    1
 17170 19283 19285    1
 17171 19286 19287    1
 17172 19286 19288    1
 17173 19289 19290    1
 17174 19289 19291    1
 17175 19292 19293    1
 17176 19292 19294    1
 17177 19295 19296    1
 17178 19295 19297    1
 17179 19298 19299    1
 17180 19298 19300    1
 17181 19301 19302    1
 17182 19301 19303    1
 17183 19304 19305    1
 17184 19304 19306    1
 17185 19307 19308    1
 17186 19307 19309    1
 17187 19310 19311    1
 17188 19310 19312    1
 17189 19313 19314    1
 17190 19313 19315    1
 17191 19316 19317    1
 17192 19316 19318    1
 17193 19319 19320    1
 17194 19319 19321    1
 17195 19322 19323    1
 17196 19322 19324    1
 17197 19325 19326    1
 17198 19325 19327    1
 17199 19328 19329    1
 17200 19328 19330    1
 17201 19331 19332    1
 17202 19331 19333    1
 17203 19334 19335    1
 17204 19334 19336    1
 17205 19337 19338    1
 17206 19337 19339    1
 17207 19340 19341    1
 17208 19340 19342    1
 17209 19343 19344    1
 17210 19343 19345    1
 17211 19346 19347    1
 17212 19346 19348    1
 17213 19349 19350    1
 17214 19349 19351    1
 17215 19352 19353    1
 17216 19352 19354    1
 17217 19355 19356    1
 17218 19355 19357    1
 17219 19358 19359    1
 17220 19358 19360    1
 17221 19361 19362    1
 17222 19361 19363    1
 17223 19364 19365    1
 17224 19364 19366    1
 17225 19367 19368    1
 17226 19367 19369    1
 17227 19370 19371    1
 17228 19370 19372    1
 17229 19373 19374    1
 17230 19373 19375    1
 17231 19376 19377    1
 17232 19376 19378    1
 17233 19379 19380    1
 17234 19379 19381    1
 17235 19382 19383    1
 17236 19382 19384    1
 17237 19385 19386    1
 17238 19385 19387    1
 17239 19388 19389    1
 17240 19388 19390    1
 17241 19391 19392    1
 17242 19391 19393    1
 17243 19394 19395    1
 17244 19394 19396    1
 17245 19397 19398    1
 17246 19397 19399    1
 17247 19400 19401    1
 17248 19400 19402    1
 17249 19403 19404    1
 17250 19403 19405    1
 17251 19406 19407    1
 17252 19406 19408    1
 17253 19409 19410    1
 17254 19409 19411    1
 17255 19412 19413    1
 17256 19412 19414    1
 17257 19415 19416    1
 17258 19415 19417    1
 17259 19418 19419    1
 17260 19418 19420    1
 17261 19421 19422    1
 17262 19421 19423    1
 17263 19424 19425    1
 17264 19424 19426    1
 17265 19427 19428    1
 17266 19427 19429    1
 17267 19430 19431    1
 17268 19430 19432    1
 17269 19433 19434    1
 17270 19433 19435    1
 17271 19436 19437    1
 17272 19436 19438    1
 17273 19439 19440    1
 17274 19439 19441    1
 17275 19442 19443    1
 17276 19442 19444    1
 17277 19445 19446    1
 17278 19445 19447    1
 17279 19448 19449    1
 17280 19448 19450    1
 17281 19451 19452    1
 17282 19451 19453    1
 17283 19454 19455    1
 17284 19454 19456    1
 17285 19457 19458    1
 17286 19457 19459    1
 17287 19460 19461    1
 17288 19460 19462    1
 17289 19463 19464    1
 17290 19463 19465    1
 17291 19466 19467    1
 17292 19466 19468    1
 17293 19469 19470    1
 17294 19469 19471    1
 17295 19472 19473    1
 17296 19472 19474    1
 17297 19475 19476    1
 17298 19475 19477    1
 17299 19478 19479    1
 17300 19478 19480    1
 17301 19481 19482    1
 17302 19481 19483    1
 17303 19484 19485    1
 17304 19484 19486    1
 17305 19487 19488    1
 17306 19487 19489    1
 17307 19490 19491    1
 17308 19490 19492    1
 17309 19493 19494    1
 17310 19493 19495    1
 17311 19496 19497    1
 17312 19496 19498    1
 17313 19499 19500    1
 17314 19499 19501    1
 17315 19502 19503    1
 17316 19502 19504    1
 17317 19505 19506    1
 17318 19505 19507    1
 17319 19508 19509    1
 17320 19508 19510    1
 17321 19511 19512    1
 17322 19511 19513    1
 17323 19514 19515    1
 17324 19514 19516    1
 17325 19517 19518    1
 17326 19517 19519    1
 17327 19520 19521    1
 17328 19520 19522    1
 17329 19523 19524    1
 17330 19523 19525    1
 17331 19526 19527    1
 17332 19526 19528    1
 17333 19529 19530    1
 17334 19529 19531    1
 17335 19532 19533    1
 17336 19532 19534    1
 17337 19535 19536    1
 17338 19535 19537    1
 17339 19538 19539    1
 17340 19538 19540    1
 17341 19541 19542    1
 17342 19541 19543    1
 17343 19544 19545    1
 17344 19544 19546    1
 17345 19547 19548    1
 17346 19547 19549    1
 17347 19550 19551    1
 17348 19550 19552    1
 17349 19553 19554    1
 17350 19553 19555    1
 17351 19556 19557    1
 17352 19556 19558    1
 17353 19559 19560    1
 17354 19559 19561    1
 17355 19562 19563    1
 17356 19562 19564    1
 17357 19565 19566    1
 17358 19565 19567    1
 17359 19568 19569    1
 17360 19568 19570    1
 17361 19571 19572    1
 17362 19571 19573    1
 17363 19574 19575    1
 17364 19574 19576    1
 17365 19577 19578    1
 17366 19577 19579    1
 17367 19580 19581    1
 17368 19580 19582    1
 17369 19583 19584    1
 17370 19583 19585    1
 17371 19586 19587    1
 17372 19586 19588    1
 17373 19589 19590    1
 17374 19589 19591    1
 17375 19592 19593    1
 17376 19592 19594    1
 17377 19595 19596    1
 17378 19595 19597    1
 17379 19598 19599    1
 17380 19598 19600    1
 17381 19601 19602    1
 17382 19601 19603    1
 17383 19604 19605    1
 17384 19604 19606    1
 17385 19607 19608    1
 17386 19607 19609    1
 17387 19610 19611    1
 17388 19610 19612    1
 17389 19613 19614    1
 17390 19613 19615    1
 17391 19616 19617    1
 17392 19616 19618    1
 17393 19619 19620    1
 17394 19619 19621    1
 17395 19622 19623    1
 17396 19622 19624    1
 17397 19625 19626    1
 17398 19625 19627    1
 17399 19628 19629    1
 17400 19628 19630    1
 17401 19631 19632    1
 17402 19631 19633    1
 17403 19634 19635    1
 17404 19634 19636    1
 17405 19637 19638    1
 17406 19637 19639    1
 17407 19640 19641    1
 17408 19640 19642    1
 17409 19643 19644    1
 17410 19643 19645    1
 17411 19646 19647    1
 17412 19646 19648    1
 17413 19649 19650    1
 17414 19649 19651    1
 17415 19652 19653    1
 17416 19652 19654    1
 17417 19655 19656    1
 17418 19655 19657    1
 17419 19658 19659    1
 17420 19658 19660    1
 17421 19661 19662    1
 17422 19661 19663    1
 17423 19664 19665    1
 17424 19664 19666    1
 17425 19667 19668    1
 17426 19667 19669    1
 17427 19670 19671    1
 17428 19670 19672    1
 17429 19673 19674    1
 17430 19673 19675    1
 17431 19676 19677    1
 17432 19676 19678    1
 17433 19679 19680    1
 17434 19679 19681    1
 17435 19682 19683    1
 17436 19682 19684    1
 17437 19685 19686    1
 17438 19685 19687    1
 17439 19688 19689    1
 17440 19688 19690    1
 17441 19691 19692    1
 17442 19691 19693    1
 17443 19694 19695    1
 17444 19694 19696    1
 17445 19697 19698    1
 17446 19697 19699    1
 17447 19700 19701    1
 17448 19700 19702    1
 17449 19703 19704    1
 17450 19703 19705    1
 17451 19706 19707    1
 17452 19706 19708    1
 17453 19709 19710    1
 17454 19709 19711    1
 17455 19712 19713    1
 17456 19712 19714    1
 17457 19715 19716    1
 17458 19715 19717    1
 17459 19718 19719    1
 17460 19718 19720    1
 17461 19721 19722    1
 17462 19721 19723    1
 17463 19724 19725    1
 17464 19724 19726    1
 17465 19727 19728    1
 17466 19727 19729    1
 17467 19730 19731    1
 17468 19730 19732    1
 17469 19733 19734    1
 17470 19733 19735    1
 17471 19736 19737    1
 17472 19736 19738    1
 17473 19739 19740    1
 17474 19739 19741    1
 17475 19742 19743    1
 17476 19742 19744    1
 17477 19745 19746    1
 17478 19745 19747    1
 17479 19748 19749    1
 17480 19748 19750    1
 17481 19751 19752    1
 17482 19751 19753    1
 17483 19754 19755    1
 17484 19754 19756    1
 17485 19757 19758    1
 17486 19757 19759    1
 17487 19760 19761    1
 17488 19760 19762    1
 17489 19763 19764    1
 17490 19763 19765    1
 17491 19766 19767    1
 17492 19766 19768    1
 17493 19769 19770    1
 17494 19769 19771    1
 17495 19772 19773    1
 17496 19772 19774    1
 17497 19775 19776    1
 17498 19775 19777    1
 17499 19778 19779    1
 17500 19778 19780    1
 17501 19781 19782    1
 17502 19781 19783    1
 17503 19784 19785    1
 17504 19784 19786    1
 17505 19787 19788    1
 17506 19787 19789    1
 17507 19790 19791    1
 17508 19790 19792    1
 17509 19793 19794    1
 17510 19793 19795    1
 17511 19796 19797    1
 17512 19796 19798    1
 17513 19799 19800    1
 17514 19799 19801    1
 17515 19802 19803    1
 17516 19802 19804    1
 17517 19805 19806    1
 17518 19805 19807    1
 17519 19808 19809    1
 17520 19808 19810    1
 17521 19811 19812    1
 17522 19811 19813    1
 17523 19814 19815    1
 17524 19814 19816    1
 17525 19817 19818    1
 17526 19817 19819    1
 17527 19820 19821    1
 17528 19820 19822    1
 17529 19823 19824    1
 17530 19823 19825    1
 17531 19826 19827    1
 17532 19826 19828    1
 17533 19829 19830    1
 17534 19829 19831    1
 17535 19832 19833    1
 17536 19832 19834    1
 17537 19835 19836    1
 17538 19835 19837    1
 17539 19838 19839    1
 17540 19838 19840    1
 17541 19841 19842    1
 17542 19841 19843    1
 17543 19844 19845    1
 17544 19844 19846    1
 17545 19847 19848    1
 17546 19847 19849    1
 17547 19850 19851    1
 17548 19850 19852    1
 17549 19853 19854    1
 17550 19853 19855    1
 17551 19856 19857    1
 17552 19856 19858    1
 17553 19859 19860    1
 17554 19859 19861    1
 17555 19862 19863    1
 17556 19862 19864    1
 17557 19865 19866    1
 17558 19865 19867    1
 17559 19868 19869    1
 17560 19868 19870    1
 17561 19871 19872    1
 17562 19871 19873    1
 17563 19874 19875    1
 17564 19874 19876    1
 17565 19877 19878    1
 17566 19877 19879    1
 17567 19880 19881    1
 17568 19880 19882    1
 17569 19883 19884    1
 17570 19883 19885    1
 17571 19886 19887    1
 17572 19886 19888    1
 17573 19889 19890    1
 17574 19889 19891    1
 17575 19892 19893    1
 17576 19892 19894    1
 17577 19895 19896    1
 17578 19895 19897    1
 17579 19898 19899    1
 17580 19898 19900    1
 17581 19901 19902    1
 17582 19901 19903    1
 17583 19904 19905    1
 17584 19904 19906    1
 17585 19907 19908    1
 17586 19907 19909    1
 17587 19910 19911    1
 17588 19910 19912    1
 17589 19913 19914    1
 17590 19913 19915    1
 17591 19916 19917    1
 17592 19916 19918    1
 17593 19919 19920    1
 17594 19919 19921    1
 17595 19922 19923    1
 17596 19922 19924    1
 17597 19925 19926    1
 17598 19925 19927    1
 17599 19928 19929    1
 17600 19928 19930    1
 17601 19931 19932    1
 17602 19931 19933    1
 17603 19934 19935    1
 17604 19934 19936    1
 17605 19937 19938    1
 17606 19937 19939    1
 17607 19940 19941    1
 17608 19940 19942    1
 17609 19943 19944    1
 17610 19943 19945    1
 17611 19946 19947    1
 17612 19946 19948    1
 17613 19949 19950    1
 17614 19949 19951    1
 17615 19952 19953    1
 17616 19952 19954    1
 17617 19955 19956    1
 17618 19955 19957    1
 17619 19958 19959    1
 17620 19958 19960    1
 17621 19961 19962    1
 17622 19961 19963    1
 17623 19964 19965    1
 17624 19964 19966    1
 17625 19967 19968    1
 17626 19967 19969    1
 17627 19970 19971    1
 17628 19970 19972    1
 17629 19973 19974    1
 17630 19973 19975    1
 17631 19976 19977    1
 17632 19976 19978    1
 17633 19979 19980    1
 17634 19979 19981    1
 17635 19982 19983    1
 17636 19982 19984    1
 17637 19985 19986    1
 17638 19985 19987    1
 17639 19988 19989    1
 17640 19988 19990    1
 17641 19991 19992    1
 17642 19991 19993    1
 17643 19994 19995    1
 17644 19994 19996    1
 17645 19997 19998    1
 17646 19997 19999    1
 17647 20000 20001    1
 17648 20000 20002    1
 17649 20003 20004    1
 17650 20003 20005    1
 17651 20006 20007    1
 17652 20006 20008    1
 17653 20009 20010    1
 17654 20009 20011    1
 17655 20012 20013    1
 17656 20012 20014    1
 17657 20015 20016    1
 17658 20015 20017    1
 17659 20018 20019    1
 17660 20018 20020    1
 17661 20021 20022    1
 17662 20021 20023    1
 17663 20024 20025    1
 17664 20024 20026    1
 17665 20027 20028    1
 17666 20027 20029    1
 17667 20030 20031    1
 17668 20030 20032    1
 17669 20033 20034    1
 17670 20033 20035    1
 17671 20036 20037    1
 17672 20036 20038    1
 17673 20039 20040    1
 17674 20039 20041    1
 17675 20042 20043    1
 17676 20042 20044    1
 17677 20045 20046    1
 17678 20045 20047    1
 17679 20048 20049    1
 17680 20048 20050    1
 17681 20051 20052    1
 17682 20051 20053    1
 17683 20054 20055    1
 17684 20054 20056    1
 17685 20057 20058    1
 17686 20057 20059    1
 17687 20060 20061    1
 17688 20060 20062    1
 17689 20063 20064    1
 17690 20063 20065    1
 17691 20066 20067    1
 17692 20066 20068    1
 17693 20069 20070    1
 17694 20069 20071    1
 17695 20072 20073    1
 17696 20072 20074    1
 17697 20075 20076    1
 17698 20075 20077    1
 17699 20078 20079    1
 17700 20078 20080    1
 17701 20081 20082    1
 17702 20081 20083    1
 17703 20084 20085    1
 17704 20084 20086    1
 17705 20087 20088    1
 17706 20087 20089    1
 17707 20090 20091    1
 17708 20090 20092    1
 17709 20093 20094    1
 17710 20093 20095    1
 17711 20096 20097    1
 17712 20096 20098    1
 17713 20099 20100    1
 17714 20099 20101    1
 17715 20102 20103    1
 17716 20102 20104    1
 17717 20105 20106    1
 17718 20105 20107    1
 17719 20108 20109    1
 17720 20108 20110    1
 17721 20111 20112    1
 17722 20111 20113    1
 17723 20114 20115    1
 17724 20114 20116    1
 17725 20117 20118    1
 17726 20117 20119    1
 17727 20120 20121    1
 17728 20120 20122    1
 17729 20123 20124    1
 17730 20123 20125    1
 17731 20126 20127    1
 17732 20126 20128    1
 17733 20129 20130    1
 17734 20129 20131    1
 17735 20132 20133    1
 17736 20132 20134    1
 17737 20135 20136    1
 17738 20135 20137    1
 17739 20138 20139    1
 17740 20138 20140    1
 17741 20141 20142    1
 17742 20141 20143    1
 17743 20144 20145    1
 17744 20144 20146    1
 17745 20147 20148    1
 17746 20147 20149    1
 17747 20150 20151    1
 17748 20150 20152    1
 17749 20153 20154    1
 17750 20153 20155    1
 17751 20156 20157    1
 17752 20156 20158    1
 17753 20159 20160    1
 17754 20159 20161    1
 17755 20162 20163    1
 17756 20162 20164    1
 17757 20165 20166    1
 17758 20165 20167    1
 17759 20168 20169    1
 17760 20168 20170    1
 17761 20171 20172    1
 17762 20171 20173    1
 17763 20174 20175    1
 17764 20174 20176    1
 17765 20177 20178    1
 17766 20177 20179    1
 17767 20180 20181    1
 17768 20180 20182    1
 17769 20183 20184    1
 17770 20183 20185    1
 17771 20186 20187    1
 17772 20186 20188    1
 17773 20189 20190    1
 17774 20189 20191    1
 17775 20192 20193    1
 17776 20192 20194    1
 17777 20195 20196    1
 17778 20195 20197    1
 17779 20198 20199    1
 17780 20198 20200    1
 17781 20201 20202    1
 17782 20201 20203    1
 17783 20204 20205    1
 17784 20204 20206    1
 17785 20207 20208    1
 17786 20207 20209    1
 17787 20210 20211    1
 17788 20210 20212    1
 17789 20213 20214    1
 17790 20213 20215    1
 17791 20216 20217    1
 17792 20216 20218    1
 17793 20219 20220    1
 17794 20219 20221    1
 17795 20222 20223    1
 17796 20222 20224    1
 17797 20225 20226    1
 17798 20225 20227    1
 17799 20228 20229    1
 17800 20228 20230    1
 17801 20231 20232    1
 17802 20231 20233    1
 17803 20234 20235    1
 17804 20234 20236    1
 17805 20237 20238    1
 17806 20237 20239    1
 17807 20240 20241    1
 17808 20240 20242    1
 17809 20243 20244    1
 17810 20243 20245    1
 17811 20246 20247    1
 17812 20246 20248    1
 17813 20249 20250    1
 17814 20249 20251    1
 17815 20252 20253    1
 17816 20252 20254    1
 17817 20255 20256    1
 17818 20255 20257    1
 17819 20258 20259    1
 17820 20258 20260    1
 17821 20261 20262    1
 17822 20261 20263    1
 17823 20264 20265    1
 17824 20264 20266    1
 17825 20267 20268    1
 17826 20267 20269    1
 17827 20270 20271    1
 17828 20270 20272    1
 17829 20273 20274    1
 17830 20273 20275    1
 17831 20276 20277    1
 17832 20276 20278    1
 17833 20279 20280    1
 17834 20279 20281    1
 17835 20282 20283    1
 17836 20282 20284    1
 17837 20285 20286    1
 17838 20285 20287    1
 17839 20288 20289    1
 17840 20288 20290    1
 17841 20291 20292    1
 17842 20291 20293    1
 17843 20294 20295    1
 17844 20294 20296    1
 17845 20297 20298    1
 17846 20297 20299    1
 17847 20300 20301    1
 17848 20300 20302    1
 17849 20303 20304    1
 17850 20303 20305    1
 17851 20306 20307    1
 17852 20306 20308    1
 17853 20309 20310    1
 17854 20309 20311    1
 17855 20312 20313    1
 17856 20312 20314    1
 17857 20315 20316    1
 17858 20315 20317    1
 17859 20318 20319    1
 17860 20318 20320    1
 17861 20321 20322    1
 17862 20321 20323    1
 17863 20324 20325    1
 17864 20324 20326    1
 17865 20327 20328    1
 17866 20327 20329    1
 17867 20330 20331    1
 17868 20330 20332    1
 17869 20333 20334    1
 17870 20333 20335    1
 17871 20336 20337    1
 17872 20336 20338    1
 17873 20339 20340    1
 17874 20339 20341    1
 17875 20342 20343    1
 17876 20342 20344    1
 17877 20345 20346    1
 17878 20345 20347    1
 17879 20348 20349    1
 17880 20348 20350    1
 17881 20351 20352    1
 17882 20351 20353    1
 17883 20354 20355    1
 17884 20354 20356    1
 17885 20357 20358    1
 17886 20357 20359    1
 17887 20360 20361    1
 17888 20360 20362    1
 17889 20363 20364    1
 17890 20363 20365    1
 17891 20366 20367    1
 17892 20366 20368    1
 17893 20369 20370    1
 17894 20369 20371    1
 17895 20372 20373    1
 17896 20372 20374    1
 17897 20375 20376    1
 17898 20375 20377    1
 17899 20378 20379    1
 17900 20378 20380    1
 17901 20381 20382    1
 17902 20381 20383    1
 17903 20384 20385    1
 17904 20384 20386    1
 17905 20387 20388    1
 17906 20387 20389    1
 17907 20390 20391    1
 17908 20390 20392    1
 17909 20393 20394    1
 17910 20393 20395    1
 17911 20396 20397    1
 17912 20396 20398    1
 17913 20399 20400    1
 17914 20399 20401    1
 17915 20402 20403    1
 17916 20402 20404    1
 17917 20405 20406    1
 17918 20405 20407    1
 17919 20408 20409    1
 17920 20408 20410    1
 17921 20411 20412    1
 17922 20411 20413    1
 17923 20414 20415    1
 17924 20414 20416    1
 17925 20417 20418    1
 17926 20417 20419    1
 17927 20420 20421    1
 17928 20420 20422    1
 17929 20423 20424    1
 17930 20423 20425    1
 17931 20426 20427    1
 17932 20426 20428    1
 17933 20429 20430    1
 17934 20429 20431    1
 17935 20432 20433    1
 17936 20432 20434    1
 17937 20435 20436    1
 17938 20435 20437    1
 17939 20438 20439    1
 17940 20438 20440    1
 17941 20441 20442    1
 17942 20441 20443    1
 17943 20444 20445    1
 17944 20444 20446    1
 17945 20447 20448    1
 17946 20447 20449    1
 17947 20450 20451    1
 17948 20450 20452    1
 17949 20453 20454    1
 17950 20453 20455    1
 17951 20456 20457    1
 17952 20456 20458    1
 17953 20459 20460    1
 17954 20459 20461    1
 17955 20462 20463    1
 17956 20462 20464    1
 17957 20465 20466    1
 17958 20465 20467    1
 17959 20468 20469    1
 17960 20468 20470    1
 17961 20471 20472    1
 17962 20471 20473    1
 17963 20474 20475    1
 17964 20474 20476    1
 17965 20477 20478    1
 17966 20477 20479    1
 17967 20480 20481    1
 17968 20480 20482    1
 17969 20483 20484    1
 17970 20483 20485    1
 17971 20486 20487    1
 17972 20486 20488    1
 17973 20489 20490    1
 17974 20489 20491    1
 17975 20492 20493    1
 17976 20492 20494    1
 17977 20495 20496    1
 17978 20495 20497    1
 17979 20498 20499    1
 17980 20498 20500    1
 17981 20501 20502    1
 17982 20501 20503    1
 17983 20504 20505    1
 17984 20504 20506    1
 17985 20507 20508    1
 17986 20507 20509    1
 17987 20510 20511    1
 17988 20510 20512    1
 17989 20513 20514    1
 17990 20513 20515    1
 17991 20516 20517    1
 17992 20516 20518    1
 17993 20519 20520    1
 17994 20519 20521    1
 17995 20522 20523    1
 17996 20522 20524    1
 17997 20525 20526    1
 17998 20525 20527    1
 17999 20528 20529    1
 18000 20528 20530    1
 18001 20531 20532    1
 18002 20531 20533    1
 18003 20534 20535    1
 18004 20534 20536    1
 18005 20537 20538    1
 18006 20537 20539    1
 18007 20540 20541    1
 18008 20540 20542    1
 18009 20543 20544    1
 18010 20543 20545    1
 18011 20546 20547    1
 18012 20546 20548    1
 18013 20549 20550    1
 18014 20549 20551    1
 18015 20552 20553    1
 18016 20552 20554    1
 18017 20555 20556    1
 18018 20555 20557    1
 18019 20558 20559    1
 18020 20558 20560    1
 18021 20561 20562    1
 18022 20561 20563    1
 18023 20564 20565    1
 18024 20564 20566    1
 18025 20567 20568    1
 18026 20567 20569    1
 18027 20570 20571    1
 18028 20570 20572    1
 18029 20573 20574    1
 18030 20573 20575    1
 18031 20576 20577    1
 18032 20576 20578    1
 18033 20579 20580    1
 18034 20579 20581    1
 18035 20582 20583    1
 18036 20582 20584    1
 18037 20585 20586    1
 18038 20585 20587    1
 18039 20588 20589    1
 18040 20588 20590    1
 18041 20591 20592    1
 18042 20591 20593    1
 18043 20594 20595    1
 18044 20594 20596    1
 18045 20597 20598    1
 18046 20597 20599    1
 18047 20600 20601    1
 18048 20600 20602    1
 18049 20603 20604    1
 18050 20603 20605    1
 18051 20606 20607    1
 18052 20606 20608    1
 18053 20609 20610    1
 18054 20609 20611    1
 18055 20612 20613    1
 18056 20612 20614    1
 18057 20615 20616    1
 18058 20615 20617    1
 18059 20618 20619    1
 18060 20618 20620    1
 18061 20621 20622    1
 18062 20621 20623    1
 18063 20624 20625    1
 18064 20624 20626    1
 18065 20627 20628    1
 18066 20627 20629    1
 18067 20630 20631    1
 18068 20630 20632    1
 18069 20633 20634    1
 18070 20633 20635    1
 18071 20636 20637    1
 18072 20636 20638    1
 18073 20639 20640    1
 18074 20639 20641    1
 18075 20642 20643    1
 18076 20642 20644    1
 18077 20645 20646    1
 18078 20645 20647    1
 18079 20648 20649    1
 18080 20648 20650    1
 18081 20651 20652    1
 18082 20651 20653    1
 18083 20654 20655    1
 18084 20654 20656    1
 18085 20657 20658    1
 18086 20657 20659    1
 18087 20660 20661    1
 18088 20660 20662    1
 18089 20663 20664    1
 18090 20663 20665    1
 18091 20666 20667    1
 18092 20666 20668    1
 18093 20669 20670    1
 18094 20669 20671    1
 18095 20672 20673    1
 18096 20672 20674    1
 18097 20675 20676    1
 18098 20675 20677    1
 18099 20678 20679    1
 18100 20678 20680    1
 18101 20681 20682    1
 18102 20681 20683    1
 18103 20684 20685    1
 18104 20684 20686    1
 18105 20687 20688    1
 18106 20687 20689    1
 18107 20690 20691    1
 18108 20690 20692    1
 18109 20693 20694    1
 18110 20693 20695    1
 18111 20696 20697    1
 18112 20696 20698    1
 18113 20699 20700    1
 18114 20699 20701    1
 18115 20702 20703    1
 18116 20702 20704    1
 18117 20705 20706    1
 18118 20705 20707    1
 18119 20708 20709    1
 18120 20708 20710    1
 18121 20711 20712    1
 18122 20711 20713    1
 18123 20714 20715    1
 18124 20714 20716    1
 18125 20717 20718    1
 18126 20717 20719    1
 18127 20720 20721    1
 18128 20720 20722    1
 18129 20723 20724    1
 18130 20723 20725    1
 18131 20726 20727    1
 18132 20726 20728    1
 18133 20729 20730    1
 18134 20729 20731    1
 18135 20732 20733    1
 18136 20732 20734    1
 18137 20735 20736    1
 18138 20735 20737    1
 18139 20738 20739    1
 18140 20738 20740    1
 18141 20741 20742    1
 18142 20741 20743    1
 18143 20744 20745    1
 18144 20744 20746    1
 18145 20747 20748    1
 18146 20747 20749    1
 18147 20750 20751    1
 18148 20750 20752    1
 18149 20753 20754    1
 18150 20753 20755    1
 18151 20756 20757    1
 18152 20756 20758    1
 18153 20759 20760    1
 18154 20759 20761    1
 18155 20762 20763    1
 18156 20762 20764    1
 18157 20765 20766    1
 18158 20765 20767    1
 18159 20768 20769    1
 18160 20768 20770    1
 18161 20771 20772    1
 18162 20771 20773    1
 18163 20774 20775    1
 18164 20774 20776    1
 18165 20777 20778    1
 18166 20777 20779    1
 18167 20780 20781    1
 18168 20780 20782    1
 18169 20783 20784    1
 18170 20783 20785    1
 18171 20786 20787    1
 18172 20786 20788    1
 18173 20789 20790    1
 18174 20789 20791    1
 18175 20792 20793    1
 18176 20792 20794    1
 18177 20795 20796    1
 18178 20795 20797    1
 18179 20798 20799    1
 18180 20798 20800    1
 18181 20801 20802    1
 18182 20801 20803    1
 18183 20804 20805    1
 18184 20804 20806    1
 18185 20807 20808    1
 18186 20807 20809    1
 18187 20810 20811    1
 18188 20810 20812    1
 18189 20813 20814    1
 18190 20813 20815    1
 18191 20816 20817    1
 18192 20816 20818    1
 18193 20819 20820    1
 18194 20819 20821    1
 18195 20822 20823    1
 18196 20822 20824    1
 18197 20825 20826    1
 18198 20825 20827    1
 18199 20828 20829    1
 18200 20828 20830    1
 18201 20831 20832    1
 18202 20831 20833    1
 18203 20834 20835    1
 18204 20834 20836    1
 18205 20837 20838    1
 18206 20837 20839    1
 18207 20840 20841    1
 18208 20840 20842    1
 18209 20843 20844    1
 18210 20843 20845    1
 18211 20846 20847    1
 18212 20846 20848    1
 18213 20849 20850    1
 18214 20849 20851    1
 18215 20852 20853    1
 18216 20852 20854    1
 18217 20855 20856    1
 18218 20855 20857    1
 18219 20858 20859    1
 18220 20858 20860    1
 18221 20861 20862    1
 18222 20861 20863    1
 18223 20864 20865    1
 18224 20864 20866    1
 18225 20867 20868    1
 18226 20867 20869    1
 18227 20870 20871    1
 18228 20870 20872    1
 18229 20873 20874    1
 18230 20873 20875    1
 18231 20876 20877    1
 18232 20876 20878    1
 18233 20879 20880    1
 18234 20879 20881    1
 18235 20882 20883    1
 18236 20882 20884    1
 18237 20885 20886    1
 18238 20885 20887    1
 18239 20888 20889    1
 18240 20888 20890    1
 18241 20891 20892    1
 18242 20891 20893    1
 18243 20894 20895    1
 18244 20894 20896    1
 18245 20897 20898    1
 18246 20897 20899    1
 18247 20900 20901    1
 18248 20900 20902    1
 18249 20903 20904    1
 18250 20903 20905    1
 18251 20906 20907    1
 18252 20906 20908    1
 18253 20909 20910    1
 18254 20909 20911    1
 18255 20912 20913    1
 18256 20912 20914    1
 18257 20915 20916    1
 18258 20915 20917    1
 18259 20918 20919    1
 18260 20918 20920    1
 18261 20921 20922    1
 18262 20921 20923    1
 18263 20924 20925    1
 18264 20924 20926    1
 18265 20927 20928    1
 18266 20927 20929    1
 18267 20930 20931    1
 18268 20930 20932    1
 18269 20933 20934    1
 18270 20933 20935    1
 18271 20936 20937    1
 18272 20936 20938    1
 18273 20939 20940    1
 18274 20939 20941    1
 18275 20942 20943    1
 18276 20942 20944    1
 18277 20945 20946    1
 18278 20945 20947    1
 18279 20948 20949    1
 18280 20948 20950    1
 18281 20951 20952    1
 18282 20951 20953    1
 18283 20954 20955    1
 18284 20954 20956    1
 18285 20957 20958    1
 18286 20957 20959    1
 18287 20960 20961    1
 18288 20960 20962    1
 18289 20963 20964    1
 18290 20963 20965    1
 18291 20966 20967    1
 18292 20966 20968    1
 18293 20969 20970    1
 18294 20969 20971    1
 18295 20972 20973    1
 18296 20972 20974    1
 18297 20975 20976    1
 18298 20975 20977    1
 18299 20978 20979    1
 18300 20978 20980    1
 18301 20981 20982    1
 18302 20981 20983    1
 18303 20984 20985    1
 18304 20984 20986    1
 18305 20987 20988    1
 18306 20987 20989    1
 18307 20990 20991    1
 18308 20990 20992    1
 18309 20993 20994    1
 18310 20993 20995    1
 18311 20996 20997    1
 18312 20996 20998    1
 18313 20999 21000    1
 18314 20999 21001    1
 18315 21002 21003    1
 18316 21002 21004    1
 18317 21005 21006    1
 18318 21005 21007    1
 18319 21008 21009    1
 18320 21008 21010    1
 18321 21011 21012    1
 18322 21011 21013    1
 18323 21014 21015    1
 18324 21014 21016    1
 18325 21017 21018    1
 18326 21017 21019    1
 18327 21020 21021    1
 18328 21020 21022    1
 18329 21023 21024    1
 18330 21023 21025    1
 18331 21026 21027    1
 18332 21026 21028    1
 18333 21029 21030    1
 18334 21029 21031    1
 18335 21032 21033    1
 18336 21032 21034    1
 18337 21035 21036    1
 18338 21035 21037    1
 18339 21038 21039    1
 18340 21038 21040    1
 18341 21041 21042    1
 18342 21041 21043    1
 18343 21044 21045    1
 18344 21044 21046    1
 18345 21047 21048    1
 18346 21047 21049    1
 18347 21050 21051    1
 18348 21050 21052    1
 18349 21053 21054    1
 18350 21053 21055    1
 18351 21056 21057    1
 18352 21056 21058    1
 18353 21059 21060    1
 18354 21059 21061    1
 18355 21062 21063    1
 18356 21062 21064    1
 18357 21065 21066    1
 18358 21065 21067    1
 18359 21068 21069    1
 18360 21068 21070    1
 18361 21071 21072    1
 18362 21071 21073    1
 18363 21074 21075    1
 18364 21074 21076    1
 18365 21077 21078    1
 18366 21077 21079    1
 18367 21080 21081    1
 18368 21080 21082    1
 18369 21083 21084    1
 18370 21083 21085    1
 18371 21086 21087    1
 18372 21086 21088    1
 18373 21089 21090    1
 18374 21089 21091    1
 18375 21092 21093    1
 18376 21092 21094    1
 18377 21095 21096    1
 18378 21095 21097    1
 18379 21098 21099    1
 18380 21098 21100    1
 18381 21101 21102    1
 18382 21101 21103    1
 18383 21104 21105    1
 18384 21104 21106    1
 18385 21107 21108    1
 18386 21107 21109    1
 18387 21110 21111    1
 18388 21110 21112    1
 18389 21113 21114    1
 18390 21113 21115    1
 18391 21116 21117    1
 18392 21116 21118    1
 18393 21119 21120    1
 18394 21119 21121    1
 18395 21122 21123    1
 18396 21122 21124    1
 18397 21125 21126    1
 18398 21125 21127    1
 18399 21128 21129    1
 18400 21128 21130    1
 18401 21131 21132    1
 18402 21131 21133    1
 18403 21134 21135    1
 18404 21134 21136    1
 18405 21137 21138    1
 18406 21137 21139    1
 18407 21140 21141    1
 18408 21140 21142    1
 18409 21143 21144    1
 18410 21143 21145    1
 18411 21146 21147    1
 18412 21146 21148    1
 18413 21149 21150    1
 18414 21149 21151    1
 18415 21152 21153    1
 18416 21152 21154    1
 18417 21155 21156    1
 18418 21155 21157    1
 18419 21158 21159    1
 18420 21158 21160    1
 18421 21161 21162    1
 18422 21161 21163    1
 18423 21164 21165    1
 18424 21164 21166    1
 18425 21167 21168    1
 18426 21167 21169    1
 18427 21170 21171    1
 18428 21170 21172    1
 18429 21173 21174    1
 18430 21173 21175    1
 18431 21176 21177    1
 18432 21176 21178    1
 18433 21179 21180    1
 18434 21179 21181    1
 18435 21182 21183    1
 18436 21182 21184    1
 18437 21185 21186    1
 18438 21185 21187    1
 18439 21188 21189    1
 18440 21188 21190    1
 18441 21191 21192    1
 18442 21191 21193    1
 18443 21194 21195    1
 18444 21194 21196    1
 18445 21197 21198    1
 18446 21197 21199    1
 18447 21200 21201    1
 18448 21200 21202    1
 18449 21203 21204    1
 18450 21203 21205    1
 18451 21206 21207    1
 18452 21206 21208    1
 18453 21209 21210    1
 18454 21209 21211    1
 18455 21212 21213    1
 18456 21212 21214    1
 18457 21215 21216    1
 18458 21215 21217    1
 18459 21218 21219    1
 18460 21218 21220    1
 18461 21221 21222    1
 18462 21221 21223    1
 18463 21224 21225    1
 18464 21224 21226    1
 18465 21227 21228    1
 18466 21227 21229    1
 18467 21230 21231    1
 18468 21230 21232    1
 18469 21233 21234    1
 18470 21233 21235    1
 18471 21236 21237    1
 18472 21236 21238    1
 18473 21239 21240    1
 18474 21239 21241    1
 18475 21242 21243    1
 18476 21242 21244    1
 18477 21245 21246    1
 18478 21245 21247    1
 18479 21248 21249    1
 18480 21248 21250    1
 18481 21251 21252    1
 18482 21251 21253    1
 18483 21254 21255    1
 18484 21254 21256    1
 18485 21257 21258    1
 18486 21257 21259    1
 18487 21260 21261    1
 18488 21260 21262    1
 18489 21263 21264    1
 18490 21263 21265    1
 18491 21266 21267    1
 18492 21266 21268    1
 18493 21269 21270    1
 18494 21269 21271    1
 18495 21272 21273    1
 18496 21272 21274    1
 18497 21275 21276    1
 18498 21275 21277    1
 18499 21278 21279    1
 18500 21278 21280    1
 18501 21281 21282    1
 18502 21281 21283    1
 18503 21284 21285    1
 18504 21284 21286    1
 18505 21287 21288    1
 18506 21287 21289    1
 18507 21290 21291    1
 18508 21290 21292    1
 18509 21293 21294    1
 18510 21293 21295    1
 18511 21296 21297    1
 18512 21296 21298    1
 18513 21299 21300    1
 18514 21299 21301    1
 18515 21302 21303    1
 18516 21302 21304    1
 18517 21305 21306    1
 18518 21305 21307    1
 18519 21308 21309    1
 18520 21308 21310    1
 18521 21311 21312    1
 18522 21311 21313    1
 18523 21314 21315    1
 18524 21314 21316    1
 18525 21317 21318    1
 18526 21317 21319    1
 18527 21320 21321    1
 18528 21320 21322    1
 18529 21323 21324    1
 18530 21323 21325    1
 18531 21326 21327    1
 18532 21326 21328    1
 18533 21329 21330    1
 18534 21329 21331    1
 18535 21332 21333    1
 18536 21332 21334    1
 18537 21335 21336    1
 18538 21335 21337    1
 18539 21338 21339    1
 18540 21338 21340    1
 18541 21341 21342    1
 18542 21341 21343    1
 18543 21344 21345    1
 18544 21344 21346    1
 18545 21347 21348    1
 18546 21347 21349    1
 18547 21350 21351    1
 18548 21350 21352    1
 18549 21353 21354    1
 18550 21353 21355    1
 18551 21356 21357    1
 18552 21356 21358    1
 18553 21359 21360    1
 18554 21359 21361    1
 18555 21362 21363    1
 18556 21362 21364    1
 18557 21365 21366    1
 18558 21365 21367    1
 18559 21368 21369    1
 18560 21368 21370    1
 18561 21371 21372    1
 18562 21371 21373    1
 18563 21374 21375    1
 18564 21374 21376    1
 18565 21377 21378    1
 18566 21377 21379    1
 18567 21380 21381    1
 18568 21380 21382    1
 18569 21383 21384    1
 18570 21383 21385    1
 18571 21386 21387    1
 18572 21386 21388    1
 18573 21389 21390    1
 18574 21389 21391    1
 18575 21392 21393    1
 18576 21392 21394    1
 18577 21395 21396    1
 18578 21395 21397    1
 18579 21398 21399    1
 18580 21398 21400    1
 18581 21401 21402    1
 18582 21401 21403    1
 18583 21404 21405    1
 18584 21404 21406    1
 18585 21407 21408    1
 18586 21407 21409    1
 18587 21410 21411    1
 18588 21410 21412    1
 18589 21413 21414    1
 18590 21413 21415    1
 18591 21416 21417    1
 18592 21416 21418    1
 18593 21419 21420    1
 18594 21419 21421    1
 18595 21422 21423    1
 18596 21422 21424    1
 18597 21425 21426    1
 18598 21425 21427    1
 18599 21428 21429    1
 18600 21428 21430    1
 18601 21431 21432    1
 18602 21431 21433    1
 18603 21434 21435    1
 18604 21434 21436    1
 18605 21437 21438    1
 18606 21437 21439    1
 18607 21440 21441    1
 18608 21440 21442    1
 18609 21443 21444    1
 18610 21443 21445    1
 18611 21446 21447    1
 18612 21446 21448    1
 18613 21449 21450    1
 18614 21449 21451    1
 18615 21452 21453    1
 18616 21452 21454    1
 18617 21455 21456    1
 18618 21455 21457    1
 18619 21458 21459    1
 18620 21458 21460    1
 18621 21461 21462    1
 18622 21461 21463    1
 18623 21464 21465    1
 18624 21464 21466    1
 18625 21467 21468    1
 18626 21467 21469    1
 18627 21470 21471    1
 18628 21470 21472    1
 18629 21473 21474    1
 18630 21473 21475    1
 18631 21476 21477    1
 18632 21476 21478    1
 18633 21479 21480    1
 18634 21479 21481    1
 18635 21482 21483    1
 18636 21482 21484    1
 18637 21485 21486    1
 18638 21485 21487    1
 18639 21488 21489    1
 18640 21488 21490    1
 18641 21491 21492    1
 18642 21491 21493    1
 18643 21494 21495    1
 18644 21494 21496    1
 18645 21497 21498    1
 18646 21497 21499    1
 18647 21500 21501    1
 18648 21500 21502    1
 18649 21503 21504    1
 18650 21503 21505    1
 18651 21506 21507    1
 18652 21506 21508    1
 18653 21509 21510    1
 18654 21509 21511    1
 18655 21512 21513    1
 18656 21512 21514    1
 18657 21515 21516    1
 18658 21515 21517    1
 18659 21518 21519    1
 18660 21518 21520    1
 18661 21521 21522    1
 18662 21521 21523    1
 18663 21524 21525    1
 18664 21524 21526    1
 18665 21527 21528    1
 18666 21527 21529    1
 18667 21530 21531    1
 18668 21530 21532    1
 18669 21533 21534    1
 18670 21533 21535    1
 18671 21536 21537    1
 18672 21536 21538    1
 18673 21539 21540    1
 18674 21539 21541    1
 18675 21542 21543    1
 18676 21542 21544    1
 18677 21545 21546    1
 18678 21545 21547    1
 18679 21548 21549    1
 18680 21548 21550    1
 18681 21551 21552    1
 18682 21551 21553    1
 18683 21554 21555    1
 18684 21554 21556    1
 18685 21557 21558    1
 18686 21557 21559    1
 18687 21560 21561    1
 18688 21560 21562    1
 18689 21563 21564    1
 18690 21563 21565    1
 18691 21566 21567    1
 18692 21566 21568    1
 18693 21569 21570    1
 18694 21569 21571    1
 18695 21572 21573    1
 18696 21572 21574    1
 18697 21575 21576    1
 18698 21575 21577    1
 18699 21578 21579    1
 18700 21578 21580    1
 18701 21581 21582    1
 18702 21581 21583    1
 18703 21584 21585    1
 18704 21584 21586    1
 18705 21587 21588    1
 18706 21587 21589    1
 18707 21590 21591    1
 18708 21590 21592    1
 18709 21593 21594    1
 18710 21593 21595    1
 18711 21596 21597    1
 18712 21596 21598    1
 18713 21599 21600    1
 18714 21599 21601    1
 18715 21602 21603    1
 18716 21602 21604    1
 18717 21605 21606    1
 18718 21605 21607    1
 18719 21608 21609    1
 18720 21608 21610    1
 18721 21611 21612    1
 18722 21611 21613    1
 18723 21614 21615    1
 18724 21614 21616    1
 18725 21617 21618    1
 18726 21617 21619    1
 18727 21620 21621    1
 18728 21620 21622    1
 18729 21623 21624    1
 18730 21623 21625    1
 18731 21626 21627    1
 18732 21626 21628    1
 18733 21629 21630    1
 18734 21629 21631    1
 18735 21632 21633    1
 18736 21632 21634    1
 18737 21635 21636    1
 18738 21635 21637    1
 18739 21638 21639    1
 18740 21638 21640    1
 18741 21641 21642    1
 18742 21641 21643    1
 18743 21644 21645    1
 18744 21644 21646    1
 18745 21647 21648    1
 18746 21647 21649    1
 18747 21650 21651    1
 18748 21650 21652    1
 18749 21653 21654    1
 18750 21653 21655    1
 18751 21656 21657    1
 18752 21656 21658    1
 18753 21659 21660    1
 18754 21659 21661    1
 18755 21662 21663    1
 18756 21662 21664    1
 18757 21665 21666    1
 18758 21665 21667    1
 18759 21668 21669    1
 18760 21668 21670    1
 18761 21671 21672    1
 18762 21671 21673    1
 18763 21674 21675    1
 18764 21674 21676    1
 18765 21677 21678    1
 18766 21677 21679    1
 18767 21680 21681    1
 18768 21680 21682    1
 18769 21683 21684    1
 18770 21683 21685    1
 18771 21686 21687    1
 18772 21686 21688    1
 18773 21689 21690    1
 18774 21689 21691    1
 18775 21692 21693    1
 18776 21692 21694    1
 18777 21695 21696    1
 18778 21695 21697    1
 18779 21698 21699    1
 18780 21698 21700    1
 18781 21701 21702    1
 18782 21701 21703    1
 18783 21704 21705    1
 18784 21704 21706    1
 18785 21707 21708    1
 18786 21707 21709    1
 18787 21710 21711    1
 18788 21710 21712    1
 18789 21713 21714    1
 18790 21713 21715    1
 18791 21716 21717    1
 18792 21716 21718    1
 18793 21719 21720    1
 18794 21719 21721    1
 18795 21722 21723    1
 18796 21722 21724    1
 18797 21725 21726    1
 18798 21725 21727    1
 18799 21728 21729    1
 18800 21728 21730    1
 18801 21731 21732    1
 18802 21731 21733    1
 18803 21734 21735    1
 18804 21734 21736    1
 18805 21737 21738    1
 18806 21737 21739    1
 18807 21740 21741    1
 18808 21740 21742    1
 18809 21743 21744    1
 18810 21743 21745    1
 18811 21746 21747    1
 18812 21746 21748    1
 18813 21749 21750    1
 18814 21749 21751    1
 18815 21752 21753    1
 18816 21752 21754    1
 18817 21755 21756    1
 18818 21755 21757    1
 18819 21758 21759    1
 18820 21758 21760    1
 18821 21761 21762    1
 18822 21761 21763    1
 18823 21764 21765    1
 18824 21764 21766    1
 18825 21767 21768    1
 18826 21767 21769    1
 18827 21770 21771    1
 18828 21770 21772    1
 18829 21773 21774    1
 18830 21773 21775    1
 18831 21776 21777    1
 18832 21776 21778    1
 18833 21779 21780    1
 18834 21779 21781    1
 18835 21782 21783    1
 18836 21782 21784    1
 18837 21785 21786    1
 18838 21785 21787    1
 18839 21788 21789    1
 18840 21788 21790    1
 18841 21791 21792    1
 18842 21791 21793    1
 18843 21794 21795    1
 18844 21794 21796    1
 18845 21797 21798    1
 18846 21797 21799    1
 18847 21800 21801    1
 18848 21800 21802    1
 18849 21803 21804    1
 18850 21803 21805    1
 18851 21806 21807    1
 18852 21806 21808    1
 18853 21809 21810    1
 18854 21809 21811    1
 18855 21812 21813    1
 18856 21812 21814    1
 18857 21815 21816    1
 18858 21815 21817    1
 18859 21818 21819    1
 18860 21818 21820    1
 18861 21821 21822    1
 18862 21821 21823    1
 18863 21824 21825    1
 18864 21824 21826    1
 18865 21827 21828    1
 18866 21827 21829    1
 18867 21830 21831    1
 18868 21830 21832    1
 18869 21833 21834    1
 18870 21833 21835    1
 18871 21836 21837    1
 18872 21836 21838    1
 18873 21839 21840    1
 18874 21839 21841    1
 18875 21842 21843    1
 18876 21842 21844    1
 18877 21845 21846    1
 18878 21845 21847    1
 18879 21848 21849    1
 18880 21848 21850    1
 18881 21851 21852    1
 18882 21851 21853    1
 18883 21854 21855    1
 18884 21854 21856    1
 18885 21857 21858    1
 18886 21857 21859    1
 18887 21860 21861    1
 18888 21860 21862    1
 18889 21863 21864    1
 18890 21863 21865    1
 18891 21866 21867    1
 18892 21866 21868    1
 18893 21869 21870    1
 18894 21869 21871    1
 18895 21872 21873    1
 18896 21872 21874    1
 18897 21875 21876    1
 18898 21875 21877    1
 18899 21878 21879    1
 18900 21878 21880    1
 18901 21881 21882    1
 18902 21881 21883    1
 18903 21884 21885    1
 18904 21884 21886    1
 18905 21887 21888    1
 18906 21887 21889    1
 18907 21890 21891    1
 18908 21890 21892    1
 18909 21893 21894    1
 18910 21893 21895    1
 18911 21896 21897    1
 18912 21896 21898    1
 18913 21899 21900    1
 18914 21899 21901    1
 18915 21902 21903    1
 18916 21902 21904    1
 18917 21905 21906    1
 18918 21905 21907    1
 18919 21908 21909    1
 18920 21908 21910    1
 18921 21911 21912    1
 18922 21911 21913    1
 18923 21914 21915    1
 18924 21914 21916    1
 18925 21917 21918    1
 18926 21917 21919    1
 18927 21920 21921    1
 18928 21920 21922    1
 18929 21923 21924    1
 18930 21923 21925    1
 18931 21926 21927    1
 18932 21926 21928    1
 18933 21929 21930    1
 18934 21929 21931    1
 18935 21932 21933    1
 18936 21932 21934    1
 18937 21935 21936    1
 18938 21935 21937    1
 18939 21938 21939    1
 18940 21938 21940    1
 18941 21941 21942    1
 18942 21941 21943    1
 18943 21944 21945    1
 18944 21944 21946    1
 18945 21947 21948    1
 18946 21947 21949    1
 18947 21950 21951    1
 18948 21950 21952    1
 18949 21953 21954    1
 18950 21953 21955    1
 18951 21956 21957    1
 18952 21956 21958    1
 18953 21959 21960    1
 18954 21959 21961    1
 18955 21962 21963    1
 18956 21962 21964    1
 18957 21965 21966    1
 18958 21965 21967    1
 18959 21968 21969    1
 18960 21968 21970    1
 18961 21971 21972    1
 18962 21971 21973    1
 18963 21974 21975    1
 18964 21974 21976    1
 18965 21977 21978    1
 18966 21977 21979    1
 18967 21980 21981    1
 18968 21980 21982    1
 18969 21983 21984    1
 18970 21983 21985    1
 18971 21986 21987    1
 18972 21986 21988    1
 18973 21989 21990    1
 18974 21989 21991    1
 18975 21992 21993    1
 18976 21992 21994    1
 18977 21995 21996    1
 18978 21995 21997    1
 18979 21998 21999    1
 18980 21998 22000    1
 18981 22001 22002    1
 18982 22001 22003    1
 18983 22004 22005    1
 18984 22004 22006    1
 18985 22007 22008    1
 18986 22007 22009    1
 18987 22010 22011    1
 18988 22010 22012    1
 18989 22013 22014    1
 18990 22013 22015    1
 18991 22016 22017    1
 18992 22016 22018    1
 18993 22019 22020    1
 18994 22019 22021    1
 18995 22022 22023    1
 18996 22022 22024    1
 18997 22025 22026    1
 18998 22025 22027    1
 18999 22028 22029    1
 19000 22028 22030    1
 19001 22031 22032    1
 19002 22031 22033    1
 19003 22034 22035    1
 19004 22034 22036    1
 19005 22037 22038    1
 19006 22037 22039    1
 19007 22040 22041    1
 19008 22040 22042    1
 19009 22043 22044    1
 19010 22043 22045    1
 19011 22046 22047    1
 19012 22046 22048    1
 19013 22049 22050    1
 19014 22049 22051    1
 19015 22052 22053    1
 19016 22052 22054    1
 19017 22055 22056    1
 19018 22055 22057    1
 19019 22058 22059    1
 19020 22058 22060    1
 19021 22061 22062    1
 19022 22061 22063    1
 19023 22064 22065    1
 19024 22064 22066    1
 19025 22067 22068    1
 19026 22067 22069    1
 19027 22070 22071    1
 19028 22070 22072    1
 19029 22073 22074    1
 19030 22073 22075    1
 19031 22076 22077    1
 19032 22076 22078    1
 19033 22079 22080    1
 19034 22079 22081    1
 19035 22082 22083    1
 19036 22082 22084    1
 19037 22085 22086    1
 19038 22085 22087    1
 19039 22088 22089    1
 19040 22088 22090    1
 19041 22091 22092    1
 19042 22091 22093    1
 19043 22094 22095    1
 19044 22094 22096    1
 19045 22097 22098    1
 19046 22097 22099    1
 19047 22100 22101    1
 19048 22100 22102    1
 19049 22103 22104    1
 19050 22103 22105    1
 19051 22106 22107    1
 19052 22106 22108    1
 19053 22109 22110    1
 19054 22109 22111    1
 19055 22112 22113    1
 19056 22112 22114    1
 19057 22115 22116    1
 19058 22115 22117    1
 19059 22118 22119    1
 19060 22118 22120    1
 19061 22121 22122    1
 19062 22121 22123    1
 19063 22124 22125    1
 19064 22124 22126    1
 19065 22127 22128    1
 19066 22127 22129    1
 19067 22130 22131    1
 19068 22130 22132    1
 19069 22133 22134    1
 19070 22133 22135    1
 19071 22136 22137    1
 19072 22136 22138    1
 19073 22139 22140    1
 19074 22139 22141    1
 19075 22142 22143    1
 19076 22142 22144    1
 19077 22145 22146    1
 19078 22145 22147    1
 19079 22148 22149    1
 19080 22148 22150    1
 19081 22151 22152    1
 19082 22151 22153    1
 19083 22154 22155    1
 19084 22154 22156    1
 19085 22157 22158    1
 19086 22157 22159    1
 19087 22160 22161    1
 19088 22160 22162    1
 19089 22163 22164    1
 19090 22163 22165    1
 19091 22166 22167    1
 19092 22166 22168    1
 19093 22169 22170    1
 19094 22169 22171    1
 19095 22172 22173    1
 19096 22172 22174    1
 19097 22175 22176    1
 19098 22175 22177    1
 19099 22178 22179    1
 19100 22178 22180    1
 19101 22181 22182    1
 19102 22181 22183    1
 19103 22184 22185    1
 19104 22184 22186    1
 19105 22187 22188    1
 19106 22187 22189    1
 19107 22190 22191    1
 19108 22190 22192    1
 19109 22193 22194    1
 19110 22193 22195    1
 19111 22196 22197    1
 19112 22196 22198    1
 19113 22199 22200    1
 19114 22199 22201    1
 19115 22202 22203    1
 19116 22202 22204    1
 19117 22205 22206    1
 19118 22205 22207    1
 19119 22208 22209    1
 19120 22208 22210    1
 19121 22211 22212    1
 19122 22211 22213    1
 19123 22214 22215    1
 19124 22214 22216    1
 19125 22217 22218    1
 19126 22217 22219    1
 19127 22220 22221    1
 19128 22220 22222    1
 19129 22223 22224    1
 19130 22223 22225    1
 19131 22226 22227    1
 19132 22226 22228    1
 19133 22229 22230    1
 19134 22229 22231    1
 19135 22232 22233    1
 19136 22232 22234    1
 19137 22235 22236    1
 19138 22235 22237    1
 19139 22238 22239    1
 19140 22238 22240    1
 19141 22241 22242    1
 19142 22241 22243    1
 19143 22244 22245    1
 19144 22244 22246    1
 19145 22247 22248    1
 19146 22247 22249    1
 19147 22250 22251    1
 19148 22250 22252    1
 19149 22253 22254    1
 19150 22253 22255    1
 19151 22256 22257    1
 19152 22256 22258    1
 19153 22259 22260    1
 19154 22259 22261    1
 19155 22262 22263    1
 19156 22262 22264    1
 19157 22265 22266    1
 19158 22265 22267    1
 19159 22268 22269    1
 19160 22268 22270    1
 19161 22271 22272    1
 19162 22271 22273    1
 19163 22274 22275    1
 19164 22274 22276    1
 19165 22277 22278    1
 19166 22277 22279    1
 19167 22280 22281    1
 19168 22280 22282    1
 19169 22283 22284    1
 19170 22283 22285    1
 19171 22286 22287    1
 19172 22286 22288    1
 19173 22289 22290    1
 19174 22289 22291    1
 19175 22292 22293    1
 19176 22292 22294    1
 19177 22295 22296    1
 19178 22295 22297    1
 19179 22298 22299    1
 19180 22298 22300    1
 19181 22301 22302    1
 19182 22301 22303    1
 19183 22304 22305    1
 19184 22304 22306    1
 19185 22307 22308    1
 19186 22307 22309    1
 19187 22310 22311    1
 19188 22310 22312    1
 19189 22313 22314    1
 19190 22313 22315    1
 19191 22316 22317    1
 19192 22316 22318    1
 19193 22319 22320    1
 19194 22319 22321    1
 19195 22322 22323    1
 19196 22322 22324    1
 19197 22325 22326    1
 19198 22325 22327    1
 19199 22328 22329    1
 19200 22328 22330    1
 19201 22331 22332    1
 19202 22331 22333    1
 19203 22334 22335    1
 19204 22334 22336    1
 19205 22337 22338    1
 19206 22337 22339    1
 19207 22340 22341    1
 19208 22340 22342    1
 19209 22343 22344    1
 19210 22343 22345    1
 19211 22346 22347    1
 19212 22346 22348    1
 19213 22349 22350    1
 19214 22349 22351    1
 19215 22352 22353    1
 19216 22352 22354    1
 19217 22355 22356    1
 19218 22355 22357    1
 19219 22358 22359    1
 19220 22358 22360    1
 19221 22361 22362    1
 19222 22361 22363    1
 19223 22364 22365    1
 19224 22364 22366    1
 19225 22367 22368    1
 19226 22367 22369    1
 19227 22370 22371    1
 19228 22370 22372    1
 19229 22373 22374    1
 19230 22373 22375    1
 19231 22376 22377    1
 19232 22376 22378    1
 19233 22379 22380    1
 19234 22379 22381    1
 19235 22382 22383    1
 19236 22382 22384    1
 19237 22385 22386    1
 19238 22385 22387    1
 19239 22388 22389    1
 19240 22388 22390    1
 19241 22391 22392    1
 19242 22391 22393    1
 19243 22394 22395    1
 19244 22394 22396    1
 19245 22397 22398    1
 19246 22397 22399    1
 19247 22400 22401    1
 19248 22400 22402    1
 19249 22403 22404    1
 19250 22403 22405    1
 19251 22406 22407    1
 19252 22406 22408    1
 19253 22409 22410    1
 19254 22409 22411    1
 19255 22412 22413    1
 19256 22412 22414    1
 19257 22415 22416    1
 19258 22415 22417    1
 19259 22418 22419    1
 19260 22418 22420    1
 19261 22421 22422    1
 19262 22421 22423    1
 19263 22424 22425    1
 19264 22424 22426    1
 19265 22427 22428    1
 19266 22427 22429    1
 19267 22430 22431    1
 19268 22430 22432    1
 19269 22433 22434    1
 19270 22433 22435    1
 19271 22436 22437    1
 19272 22436 22438    1
 19273 22439 22440    1
 19274 22439 22441    1
 19275 22442 22443    1
 19276 22442 22444    1
 19277 22445 22446    1
 19278 22445 22447    1
 19279 22448 22449    1
 19280 22448 22450    1
 19281 22451 22452    1
 19282 22451 22453    1
 19283 22454 22455    1
 19284 22454 22456    1
 19285 22457 22458    1
 19286 22457 22459    1
 19287 22460 22461    1
 19288 22460 22462    1
 19289 22463 22464    1
 19290 22463 22465    1
 19291 22466 22467    1
 19292 22466 22468    1
 19293 22469 22470    1
 19294 22469 22471    1
 19295 22472 22473    1
 19296 22472 22474    1
 19297 22475 22476    1
 19298 22475 22477    1
 19299 22478 22479    1
 19300 22478 22480    1
 19301 22481 22482    1
 19302 22481 22483    1
 19303 22484 22485    1
 19304 22484 22486    1
 19305 22487 22488    1
 19306 22487 22489    1
 19307 22490 22491    1
 19308 22490 22492    1
 19309 22493 22494    1
 19310 22493 22495    1
 19311 22496 22497    1
 19312 22496 22498    1
 19313 22499 22500    1
 19314 22499 22501    1
 19315 22502 22503    1
 19316 22502 22504    1
 19317 22505 22506    1
 19318 22505 22507    1
 19319 22508 22509    1
 19320 22508 22510    1
 19321 22511 22512    1
 19322 22511 22513    1
 19323 22514 22515    1
 19324 22514 22516    1
 19325 22517 22518    1
 19326 22517 22519    1
 19327 22520 22521    1
 19328 22520 22522    1
 19329 22523 22524    1
 19330 22523 22525    1
 19331 22526 22527    1
 19332 22526 22528    1
 19333 22529 22530    1
 19334 22529 22531    1
 19335 22532 22533    1
 19336 22532 22534    1
 19337 22535 22536    1
 19338 22535 22537    1
 19339 22538 22539    1
 19340 22538 22540    1
 19341 22541 22542    1
 19342 22541 22543    1
 19343 22544 22545    1
 19344 22544 22546    1
 19345 22547 22548    1
 19346 22547 22549    1
 19347 22550 22551    1
 19348 22550 22552    1
 19349 22553 22554    1
 19350 22553 22555    1
 19351 22556 22557    1
 19352 22556 22558    1
 19353 22559 22560    1
 19354 22559 22561    1
 19355 22562 22563    1
 19356 22562 22564    1
 19357 22565 22566    1
 19358 22565 22567    1
 19359 22568 22569    1
 19360 22568 22570    1
 19361 22571 22572    1
 19362 22571 22573    1
 19363 22574 22575    1
 19364 22574 22576    1
 19365 22577 22578    1
 19366 22577 22579    1
 19367 22580 22581    1
 19368 22580 22582    1
 19369 22583 22584    1
 19370 22583 22585    1
 19371 22586 22587    1
 19372 22586 22588    1
 19373 22589 22590    1
 19374 22589 22591    1
 19375 22592 22593    1
 19376 22592 22594    1
 19377 22595 22596    1
 19378 22595 22597    1
 19379 22598 22599    1
 19380 22598 22600    1
 19381 22601 22602    1
 19382 22601 22603    1
 19383 22604 22605    1
 19384 22604 22606    1
 19385 22607 22608    1
 19386 22607 22609    1
 19387 22610 22611    1
 19388 22610 22612    1
 19389 22613 22614    1
 19390 22613 22615    1
 19391 22616 22617    1
 19392 22616 22618    1
 19393 22619 22620    1
 19394 22619 22621    1
 19395 22622 22623    1
 19396 22622 22624    1
 19397 22625 22626    1
 19398 22625 22627    1
 19399 22628 22629    1
 19400 22628 22630    1
 19401 22631 22632    1
 19402 22631 22633    1
 19403 22634 22635    1
 19404 22634 22636    1
 19405 22637 22638    1
 19406 22637 22639    1
 19407 22640 22641    1
 19408 22640 22642    1
 19409 22643 22644    1
 19410 22643 22645    1
 19411 22646 22647    1
 19412 22646 22648    1
 19413 22649 22650    1
 19414 22649 22651    1
 19415 22652 22653    1
 19416 22652 22654    1
 19417 22655 22656    1
 19418 22655 22657    1
 19419 22658 22659    1
 19420 22658 22660    1
 19421 22661 22662    1
 19422 22661 22663    1
 19423 22664 22665    1
 19424 22664 22666    1
 19425 22667 22668    1
 19426 22667 22669    1
 19427 22670 22671    1
 19428 22670 22672    1
 19429 22673 22674    1
 19430 22673 22675    1
 19431 22676 22677    1
 19432 22676 22678    1
 19433 22679 22680    1
 19434 22679 22681    1
 19435 22682 22683    1
 19436 22682 22684    1
 19437 22685 22686    1
 19438 22685 22687    1
 19439 22688 22689    1
 19440 22688 22690    1
 19441 22691 22692    1
 19442 22691 22693    1
 19443 22694 22695    1
 19444 22694 22696    1
 19445 22697 22698    1
 19446 22697 22699    1
 19447 22700 22701    1
 19448 22700 22702    1
 19449 22703 22704    1
 19450 22703 22705    1
 19451 22706 22707    1
 19452 22706 22708    1
 19453 22709 22710    1
 19454 22709 22711    1
 19455 22712 22713    1
 19456 22712 22714    1
 19457 22715 22716    1
 19458 22715 22717    1
 19459 22718 22719    1
 19460 22718 22720    1
 19461 22721 22722    1
 19462 22721 22723    1
 19463 22724 22725    1
 19464 22724 22726    1
 19465 22727 22728    1
 19466 22727 22729    1
 19467 22730 22731    1
 19468 22730 22732    1
 19469 22733 22734    1
 19470 22733 22735    1
 19471 22736 22737    1
 19472 22736 22738    1
 19473 22739 22740    1
 19474 22739 22741    1
 19475 22742 22743    1
 19476 22742 22744    1
 19477 22745 22746    1
 19478 22745 22747    1
 19479 22748 22749    1
 19480 22748 22750    1
 19481 22751 22752    1
 19482 22751 22753    1
 19483 22754 22755    1
 19484 22754 22756    1
 19485 22757 22758    1
 19486 22757 22759    1
 19487 22760 22761    1
 19488 22760 22762    1
 19489 22763 22764    1
 19490 22763 22765    1
 19491 22766 22767    1
 19492 22766 22768    1
 19493 22769 22770    1
 19494 22769 22771    1
 19495 22772 22773    1
 19496 22772 22774    1
 19497 22775 22776    1
 19498 22775 22777    1
 19499 22778 22779    1
 19500 22778 22780    1
 19501 22781 22782    1
 19502 22781 22783    1
 19503 22784 22785    1
 19504 22784 22786    1
 19505 22787 22788    1
 19506 22787 22789    1
 19507 22790 22791    1
 19508 22790 22792    1
 19509 22793 22794    1
 19510 22793 22795    1
 19511 22796 22797    1
 19512 22796 22798    1
 19513 22799 22800    1
 19514 22799 22801    1
 19515 22802 22803    1
 19516 22802 22804    1
 19517 22805 22806    1
 19518 22805 22807    1
 19519 22808 22809    1
 19520 22808 22810    1
 19521 22811 22812    1
 19522 22811 22813    1
 19523 22814 22815    1
 19524 22814 22816    1
 19525 22817 22818    1
 19526 22817 22819    1
 19527 22820 22821    1
 19528 22820 22822    1
 19529 22823 22824    1
 19530 22823 22825    1
 19531 22826 22827    1
 19532 22826 22828    1
 19533 22829 22830    1
 19534 22829 22831    1
 19535 22832 22833    1
 19536 22832 22834    1
 19537 22835 22836    1
 19538 22835 22837    1
 19539 22838 22839    1
 19540 22838 22840    1
 19541 22841 22842    1
 19542 22841 22843    1
 19543 22844 22845    1
 19544 22844 22846    1
 19545 22847 22848    1
 19546 22847 22849    1
 19547 22850 22851    1
 19548 22850 22852    1
 19549 22853 22854    1
 19550 22853 22855    1
 19551 22856 22857    1
 19552 22856 22858    1
 19553 22859 22860    1
 19554 22859 22861    1
 19555 22862 22863    1
 19556 22862 22864    1
 19557 22865 22866    1
 19558 22865 22867    1
 19559 22868 22869    1
 19560 22868 22870    1
 19561 22871 22872    1
 19562 22871 22873    1
 19563 22874 22875    1
 19564 22874 22876    1
 19565 22877 22878    1
 19566 22877 22879    1
 19567 22880 22881    1
 19568 22880 22882    1
 19569 22883 22884    1
 19570 22883 22885    1
 19571 22886 22887    1
 19572 22886 22888    1
 19573 22889 22890    1
 19574 22889 22891    1
 19575 22892 22893    1
 19576 22892 22894    1
 19577 22895 22896    1
 19578 22895 22897    1
 19579 22898 22899    1
 19580 22898 22900    1
 19581 22901 22902    1
 19582 22901 22903    1
 19583 22904 22905    1
 19584 22904 22906    1
 19585 22907 22908    1
 19586 22907 22909    1
 19587 22910 22911    1
 19588 22910 22912    1
 19589 22913 22914    1
 19590 22913 22915    1
 19591 22916 22917    1
 19592 22916 22918    1
 19593 22919 22920    1
 19594 22919 22921    1
 19595 22922 22923    1
 19596 22922 22924    1
 19597 22925 22926    1
 19598 22925 22927    1
 19599 22928 22929    1
 19600 22928 22930    1
 19601 22931 22932    1
 19602 22931 22933    1
 19603 22934 22935    1
 19604 22934 22936    1
 19605 22937 22938    1
 19606 22937 22939    1
 19607 22940 22941    1
 19608 22940 22942    1
 19609 22943 22944    1
 19610 22943 22945    1
 19611 22946 22947    1
 19612 22946 22948    1
 19613 22949 22950    1
 19614 22949 22951    1
 19615 22952 22953    1
 19616 22952 22954    1
 19617 22955 22956    1
 19618 22955 22957    1
 19619 22958 22959    1
 19620 22958 22960    1
 19621 22961 22962    1
 19622 22961 22963    1
 19623 22964 22965    1
 19624 22964 22966    1
 19625 22967 22968    1
 19626 22967 22969    1
 19627 22970 22971    1
 19628 22970 22972    1
 19629 22973 22974    1
 19630 22973 22975    1
 19631 22976 22977    1
 19632 22976 22978    1
 19633 22979 22980    1
 19634 22979 22981    1
 19635 22982 22983    1
 19636 22982 22984    1
 19637 22985 22986    1
 19638 22985 22987    1
 19639 22988 22989    1
 19640 22988 22990    1
 19641 22991 22992    1
 19642 22991 22993    1
 19643 22994 22995    1
 19644 22994 22996    1
 19645 22997 22998    1
 19646 22997 22999    1
 19647 23000 23001    1
 19648 23000 23002    1
 19649 23003 23004    1
 19650 23003 23005    1
 19651 23006 23007    1
 19652 23006 23008    1
 19653 23009 23010    1
 19654 23009 23011    1
 19655 23012 23013    1
 19656 23012 23014    1
 19657 23015 23016    1
 19658 23015 23017    1
 19659 23018 23019    1
 19660 23018 23020    1
 19661 23021 23022    1
 19662 23021 23023    1
 19663 23024 23025    1
 19664 23024 23026    1
 19665 23027 23028    1
 19666 23027 23029    1
 19667 23030 23031    1
 19668 23030 23032    1
 19669 23033 23034    1
 19670 23033 23035    1
 19671 23036 23037    1
 19672 23036 23038    1
 19673 23039 23040    1
 19674 23039 23041    1
 19675 23042 23043    1
 19676 23042 23044    1
 19677 23045 23046    1
 19678 23045 23047    1
 19679 23048 23049    1
 19680 23048 23050    1
 19681 23051 23052    1
 19682 23051 23053    1
 19683 23054 23055    1
 19684 23054 23056    1
 19685 23057 23058    1
 19686 23057 23059    1
 19687 23060 23061    1
 19688 23060 23062    1
 19689 23063 23064    1
 19690 23063 23065    1
 19691 23066 23067    1
 19692 23066 23068    1
 19693 23069 23070    1
 19694 23069 23071    1
 19695 23072 23073    1
 19696 23072 23074    1
 19697 23075 23076    1
 19698 23075 23077    1
 19699 23078 23079    1
 19700 23078 23080    1
 19701 23081 23082    1
 19702 23081 23083    1
 19703 23084 23085    1
 19704 23084 23086    1
 19705 23087 23088    1
 19706 23087 23089    1
 19707 23090 23091    1
 19708 23090 23092    1
 19709 23093 23094    1
 19710 23093 23095    1
 19711 23096 23097    1
 19712 23096 23098    1
 19713 23099 23100    1
 19714 23099 23101    1
 19715 23102 23103    1
 19716 23102 23104    1
 19717 23105 23106    1
 19718 23105 23107    1
 19719 23108 23109    1
 19720 23108 23110    1
 19721 23111 23112    1
 19722 23111 23113    1
 19723 23114 23115    1
 19724 23114 23116    1
 19725 23117 23118    1
 19726 23117 23119    1
 19727 23120 23121    1
 19728 23120 23122    1
 19729 23123 23124    1
 19730 23123 23125    1
 19731 23126 23127    1
 19732 23126 23128    1
 19733 23129 23130    1
 19734 23129 23131    1
 19735 23132 23133    1
 19736 23132 23134    1
 19737 23135 23136    1
 19738 23135 23137    1
 19739 23138 23139    1
 19740 23138 23140    1
 19741 23141 23142    1
 19742 23141 23143    1
 19743 23144 23145    1
 19744 23144 23146    1
 19745 23147 23148    1
 19746 23147 23149    1
 19747 23150 23151    1
 19748 23150 23152    1
 19749 23153 23154    1
 19750 23153 23155    1
 19751 23156 23157    1
 19752 23156 23158    1
 19753 23159 23160    1
 19754 23159 23161    1
 19755 23162 23163    1
 19756 23162 23164    1
 19757 23165 23166    1
 19758 23165 23167    1
 19759 23168 23169    1
 19760 23168 23170    1
 19761 23171 23172    1
 19762 23171 23173    1
 19763 23174 23175    1
 19764 23174 23176    1
 19765 23177 23178    1
 19766 23177 23179    1
 19767 23180 23181    1
 19768 23180 23182    1
 19769 23183 23184    1
 19770 23183 23185    1
 19771 23186 23187    1
 19772 23186 23188    1
 19773 23189 23190    1
 19774 23189 23191    1
 19775 23192 23193    1
 19776 23192 23194    1
 19777 23195 23196    1
 19778 23195 23197    1
 19779 23198 23199    1
 19780 23198 23200    1
 19781 23201 23202    1
 19782 23201 23203    1
 19783 23204 23205    1
 19784 23204 23206    1
 19785 23207 23208    1
 19786 23207 23209    1
 19787 23210 23211    1
 19788 23210 23212    1
 19789 23213 23214    1
 19790 23213 23215    1
 19791 23216 23217    1
 19792 23216 23218    1
 19793 23219 23220    1
 19794 23219 23221    1
 19795 23222 23223    1
 19796 23222 23224    1
 19797 23225 23226    1
 19798 23225 23227    1
 19799 23228 23229    1
 19800 23228 23230    1
 19801 23231 23232    1
 19802 23231 23233    1
 19803 23234 23235    1
 19804 23234 23236    1
 19805 23237 23238    1
 19806 23237 23239    1
 19807 23240 23241    1
 19808 23240 23242    1
 19809 23243 23244    1
 19810 23243 23245    1
 19811 23246 23247    1
 19812 23246 23248    1
 19813 23249 23250    1
 19814 23249 23251    1
 19815 23252 23253    1
 19816 23252 23254    1
 19817 23255 23256    1
 19818 23255 23257    1
 19819 23258 23259    1
 19820 23258 23260    1
 19821 23261 23262    1
 19822 23261 23263    1
 19823 23264 23265    1
 19824 23264 23266    1
 19825 23267 23268    1
 19826 23267 23269    1
 19827 23270 23271    1
 19828 23270 23272    1
 19829 23273 23274    1
 19830 23273 23275    1
 19831 23276 23277    1
 19832 23276 23278    1
 19833 23279 23280    1
 19834 23279 23281    1
 19835 23282 23283    1
 19836 23282 23284    1
 19837 23285 23286    1
 19838 23285 23287    1
 19839 23288 23289    1
 19840 23288 23290    1
 19841 23291 23292    1
 19842 23291 23293    1
 19843 23294 23295    1
 19844 23294 23296    1
 19845 23297 23298    1
 19846 23297 23299    1
 19847 23300 23301    1
 19848 23300 23302    1
 19849 23303 23304    1
 19850 23303 23305    1
 19851 23306 23307    1
 19852 23306 23308    1
 19853 23309 23310    1
 19854 23309 23311    1
 19855 23312 23313    1
 19856 23312 23314    1
 19857 23315 23316    1
 19858 23315 23317    1
 19859 23318 23319    1
 19860 23318 23320    1
 19861 23321 23322    1
 19862 23321 23323    1
 19863 23324 23325    1
 19864 23324 23326    1
 19865 23327 23328    1
 19866 23327 23329    1
 19867 23330 23331    1
 19868 23330 23332    1
 19869 23333 23334    1
 19870 23333 23335    1
 19871 23336 23337    1
 19872 23336 23338    1
 19873 23339 23340    1
 19874 23339 23341    1
 19875 23342 23343    1
 19876 23342 23344    1
 19877 23345 23346    1
 19878 23345 23347    1
 19879 23348 23349    1
 19880 23348 23350    1
 19881 23351 23352    1
 19882 23351 23353    1
 19883 23354 23355    1
 19884 23354 23356    1
 19885 23357 23358    1
 19886 23357 23359    1
 19887 23360 23361    1
 19888 23360 23362    1
 19889 23363 23364    1
 19890 23363 23365    1
 19891 23366 23367    1
 19892 23366 23368    1
 19893 23369 23370    1
 19894 23369 23371    1
 19895 23372 23373    1
 19896 23372 23374    1
 19897 23375 23376    1
 19898 23375 23377    1
 19899 23378 23379    1
 19900 23378 23380    1
 19901 23381 23382    1
 19902 23381 23383    1
 19903 23384 23385    1
 19904 23384 23386    1
 19905 23387 23388    1
 19906 23387 23389    1
 19907 23390 23391    1
 19908 23390 23392    1
 19909 23393 23394    1
 19910 23393 23395    1
 19911 23396 23397    1
 19912 23396 23398    1
 19913 23399 23400    1
 19914 23399 23401    1
 19915 23402 23403    1
 19916 23402 23404    1
 19917 23405 23406    1
 19918 23405 23407    1
 19919 23408 23409    1
 19920 23408 23410    1
 19921 23411 23412    1
 19922 23411 23413    1
 19923 23414 23415    1
 19924 23414 23416    1
 19925 23417 23418    1
 19926 23417 23419    1
 19927 23420 23421    1
 19928 23420 23422    1
 19929 23423 23424    1
 19930 23423 23425    1
 19931 23426 23427    1
 19932 23426 23428    1
 19933 23429 23430    1
 19934 23429 23431    1
 19935 23432 23433    1
 19936 23432 23434    1
 19937 23435 23436    1
 19938 23435 23437    1
 19939 23438 23439    1
 19940 23438 23440    1
 19941 23441 23442    1
 19942 23441 23443    1
 19943 23444 23445    1
 19944 23444 23446    1
 19945 23447 23448    1
 19946 23447 23449    1
 19947 23450 23451    1
 19948 23450 23452    1
 19949 23453 23454    1
 19950 23453 23455    1
 19951 23456 23457    1
 19952 23456 23458    1
 19953 23459 23460    1
 19954 23459 23461    1
 19955 23462 23463    1
 19956 23462 23464    1
 19957 23465 23466    1
 19958 23465 23467    1
 19959 23468 23469    1
 19960 23468 23470    1
 19961 23471 23472    1
 19962 23471 23473    1
 19963 23474 23475    1
 19964 23474 23476    1
 19965 23477 23478    1
 19966 23477 23479    1
 19967 23480 23481    1
 19968 23480 23482    1
 19969 23483 23484    1
 19970 23483 23485    1
 19971 23486 23487    1
 19972 23486 23488    1
 19973 23489 23490    1
 19974 23489 23491    1
 19975 23492 23493    1
 19976 23492 23494    1
 19977 23495 23496    1
 19978 23495 23497    1
 19979 23498 23499    1
 19980 23498 23500    1
 19981 23501 23502    1
 19982 23501 23503    1
 19983 23504 23505    1
 19984 23504 23506    1
 19985 23507 23508    1
 19986 23507 23509    1
 19987 23510 23511    1
 19988 23510 23512    1
 19989 23513 23514    1
 19990 23513 23515    1
 19991 23516 23517    1
 19992 23516 23518    1
 19993 23519 23520    1
 19994 23519 23521    1
 19995 23522 23523    1
 19996 23522 23524    1
 19997 23525 23526    1
 19998 23525 23527    1
 19999 23528 23529    1
 20000 23528 23530    1
 20001 23531 23532    1
 20002 23531 23533    1
 20003 23534 23535    1
 20004 23534 23536    1
 20005 23537 23538    1
 20006 23537 23539    1
 20007 23540 23541    1
 20008 23540 23542    1
 20009 23543 23544    1
 20010 23543 23545    1
 20011 23546 23547    1
 20012 23546 23548    1
 20013 23549 23550    1
 20014 23549 23551    1
 20015 23552 23553    1
 20016 23552 23554    1
 20017 23555 23556    1
 20018 23555 23557    1
 20019 23558 23559    1
 20020 23558 23560    1
 20021 23561 23562    1
 20022 23561 23563    1
 20023 23564 23565    1
 20024 23564 23566    1
 20025 23567 23568    1
 20026 23567 23569    1
 20027 23570 23571    1
 20028 23570 23572    1
 20029 23573 23574    1
 20030 23573 23575    1
 20031 23576 23577    1
 20032 23576 23578    1
 20033 23579 23580    1
 20034 23579 23581    1
 20035 23582 23583    1
 20036 23582 23584    1
 20037 23585 23586    1
 20038 23585 23587    1
 20039 23588 23589    1
 20040 23588 23590    1
 20041 23591 23592    1
 20042 23591 23593    1
 20043 23594 23595    1
 20044 23594 23596    1
 20045 23597 23598    1
 20046 23597 23599    1
 20047 23600 23601    1
 20048 23600 23602    1
 20049 23603 23604    1
 20050 23603 23605    1
 20051 23606 23607    1
 20052 23606 23608    1
 20053 23609 23610    1
 20054 23609 23611    1
 20055 23612 23613    1
 20056 23612 23614    1
 20057 23615 23616    1
 20058 23615 23617    1
 20059 23618 23619    1
 20060 23618 23620    1
 20061 23621 23622    1
 20062 23621 23623    1
 20063 23624 23625    1
 20064 23624 23626    1
 20065 23627 23628    1
 20066 23627 23629    1
 20067 23630 23631    1
 20068 23630 23632    1
 20069 23633 23634    1
 20070 23633 23635    1
 20071 23636 23637    1
 20072 23636 23638    1
 20073 23639 23640    1
 20074 23639 23641    1
 20075 23642 23643    1
 20076 23642 23644    1
 20077 23645 23646    1
 20078 23645 23647    1
 20079 23648 23649    1
 20080 23648 23650    1
 20081 23651 23652    1
 20082 23651 23653    1
 20083 23654 23655    1
 20084 23654 23656    1
 20085 23657 23658    1
 20086 23657 23659    1
 20087 23660 23661    1
 20088 23660 23662    1
 20089 23663 23664    1
 20090 23663 23665    1
 20091 23666 23667    1
 20092 23666 23668    1
 20093 23669 23670    1
 20094 23669 23671    1
 20095 23672 23673    1
 20096 23672 23674    1
 20097 23675 23676    1
 20098 23675 23677    1
 20099 23678 23679    1
 20100 23678 23680    1
 20101 23681 23682    1
 20102 23681 23683    1
 20103 23684 23685    1
 20104 23684 23686    1
 20105 23687 23688    1
 20106 23687 23689    1
 20107 23690 23691    1
 20108 23690 23692    1
 20109 23693 23694    1
 20110 23693 23695    1
 20111 23696 23697    1
 20112 23696 23698    1
 20113 23699 23700    1
 20114 23699 23701    1
 20115 23702 23703    1
 20116 23702 23704    1
 20117 23705 23706    1
 20118 23705 23707    1
 20119 23708 23709    1
 20120 23708 23710    1
 20121 23711 23712    1
 20122 23711 23713    1
 20123 23714 23715    1
 20124 23714 23716    1
 20125 23717 23718    1
 20126 23717 23719    1
 20127 23720 23721    1
 20128 23720 23722    1
 20129 23723 23724    1
 20130 23723 23725    1
 20131 23726 23727    1
 20132 23726 23728    1
 20133 23729 23730    1
 20134 23729 23731    1
 20135 23732 23733    1
 20136 23732 23734    1
 20137 23735 23736    1
 20138 23735 23737    1
 20139 23738 23739    1
 20140 23738 23740    1
 20141 23741 23742    1
 20142 23741 23743    1
 20143 23744 23745    1
 20144 23744 23746    1
 20145 23747 23748    1
 20146 23747 23749    1
 20147 23750 23751    1
 20148 23750 23752    1
 20149 23753 23754    1
 20150 23753 23755    1
 20151 23756 23757    1
 20152 23756 23758    1
 20153 23759 23760    1
 20154 23759 23761    1
 20155 23762 23763    1
 20156 23762 23764    1
 20157 23765 23766    1
 20158 23765 23767    1
 20159 23768 23769    1
 20160 23768 23770    1
 20161 23771 23772    1
 20162 23771 23773    1
 20163 23774 23775    1
 20164 23774 23776    1
 20165 23777 23778    1
 20166 23777 23779    1
 20167 23780 23781    1
 20168 23780 23782    1
 20169 23783 23784    1
 20170 23783 23785    1
 20171 23786 23787    1
 20172 23786 23788    1
 20173 23789 23790    1
 20174 23789 23791    1
 20175 23792 23793    1
 20176 23792 23794    1
 20177 23795 23796    1
 20178 23795 23797    1
 20179 23798 23799    1
 20180 23798 23800    1
 20181 23801 23802    1
 20182 23801 23803    1
 20183 23804 23805    1
 20184 23804 23806    1
 20185 23807 23808    1
 20186 23807 23809    1
 20187 23810 23811    1
 20188 23810 23812    1
 20189 23813 23814    1
 20190 23813 23815    1
 20191 23816 23817    1
 20192 23816 23818    1
 20193 23819 23820    1
 20194 23819 23821    1
 20195 23822 23823    1
 20196 23822 23824    1
 20197 23825 23826    1
 20198 23825 23827    1
 20199 23828 23829    1
 20200 23828 23830    1
 20201 23831 23832    1
 20202 23831 23833    1
 20203 23834 23835    1
 20204 23834 23836    1
 20205 23837 23838    1
 20206 23837 23839    1
 20207 23840 23841    1
 20208 23840 23842    1
 20209 23843 23844    1
 20210 23843 23845    1
 20211 23846 23847    1
 20212 23846 23848    1
 20213 23849 23850    1
 20214 23849 23851    1
 20215 23852 23853    1
 20216 23852 23854    1
 20217 23855 23856    1
 20218 23855 23857    1
 20219 23858 23859    1
 20220 23858 23860    1
 20221 23861 23862    1
 20222 23861 23863    1
 20223 23864 23865    1
 20224 23864 23866    1
 20225 23867 23868    1
 20226 23867 23869    1
 20227 23870 23871    1
 20228 23870 23872    1
 20229 23873 23874    1
 20230 23873 23875    1
 20231 23876 23877    1
 20232 23876 23878    1
 20233 23879 23880    1
 20234 23879 23881    1
 20235 23882 23883    1
 20236 23882 23884    1
 20237 23885 23886    1
 20238 23885 23887    1
 20239 23888 23889    1
 20240 23888 23890    1
 20241 23891 23892    1
 20242 23891 23893    1
 20243 23894 23895    1
 20244 23894 23896    1
 20245 23897 23898    1
 20246 23897 23899    1
 20247 23900 23901    1
 20248 23900 23902    1
 20249 23903 23904    1
 20250 23903 23905    1
 20251 23906 23907    1
 20252 23906 23908    1
 20253 23909 23910    1
 20254 23909 23911    1
 20255 23912 23913    1
 20256 23912 23914    1
 20257 23915 23916    1
 20258 23915 23917    1
 20259 23918 23919    1
 20260 23918 23920    1
 20261 23921 23922    1
 20262 23921 23923    1
 20263 23924 23925    1
 20264 23924 23926    1
 20265 23927 23928    1
 20266 23927 23929    1
 20267 23930 23931    1
 20268 23930 23932    1
 20269 23933 23934    1
 20270 23933 23935    1
 20271 23936 23937    1
 20272 23936 23938    1
 20273 23939 23940    1
 20274 23939 23941    1
 20275 23942 23943    1
 20276 23942 23944    1
 20277 23945 23946    1
 20278 23945 23947    1
 20279 23948 23949    1
 20280 23948 23950    1
 20281 23951 23952    1
 20282 23951 23953    1
 20283 23954 23955    1
 20284 23954 23956    1
 20285 23957 23958    1
 20286 23957 23959    1
 20287 23960 23961    1
 20288 23960 23962    1
 20289 23963 23964    1
 20290 23963 23965    1
 20291 23966 23967    1
 20292 23966 23968    1
 20293 23969 23970    1
 20294 23969 23971    1
 20295 23972 23973    1
 20296 23972 23974    1
 20297 23975 23976    1
 20298 23975 23977    1
 20299 23978 23979    1
 20300 23978 23980    1
 20301 23981 23982    1
 20302 23981 23983    1
 20303 23984 23985    1
 20304 23984 23986    1
 20305 23987 23988    1
 20306 23987 23989    1
 20307 23990 23991    1
 20308 23990 23992    1
 20309 23993 23994    1
 20310 23993 23995    1
 20311 23996 23997    1
 20312 23996 23998    1
 20313 23999 24000    1
 20314 23999 24001    1
 20315 24002 24003    1
 20316 24002 24004    1
 20317 24005 24006    1
 20318 24005 24007    1
 20319 24008 24009    1
 20320 24008 24010    1
 20321 24011 24012    1
 20322 24011 24013    1
 20323 24014 24015    1
 20324 24014 24016    1
 20325 24017 24018    1
 20326 24017 24019    1
 20327 24020 24021    1
 20328 24020 24022    1
 20329 24023 24024    1
 20330 24023 24025    1
 20331 24026 24027    1
 20332 24026 24028    1
 20333 24029 24030    1
 20334 24029 24031    1
 20335 24032 24033    1
 20336 24032 24034    1
 20337 24035 24036    1
 20338 24035 24037    1
 20339 24038 24039    1
 20340 24038 24040    1
 20341 24041 24042    1
 20342 24041 24043    1
 20343 24044 24045    1
 20344 24044 24046    1
 20345 24047 24048    1
 20346 24047 24049    1
 20347 24050 24051    1
 20348 24050 24052    1
 20349 24053 24054    1
 20350 24053 24055    1
 20351 24056 24057    1
 20352 24056 24058    1
 20353 24059 24060    1
 20354 24059 24061    1
 20355 24062 24063    1
 20356 24062 24064    1
 20357 24065 24066    1
 20358 24065 24067    1
 20359 24068 24069    1
 20360 24068 24070    1
 20361 24071 24072    1
 20362 24071 24073    1
 20363 24074 24075    1
 20364 24074 24076    1
 20365 24077 24078    1
 20366 24077 24079    1
 20367 24080 24081    1
 20368 24080 24082    1
 20369 24083 24084    1
 20370 24083 24085    1
 20371 24086 24087    1
 20372 24086 24088    1
 20373 24089 24090    1
 20374 24089 24091    1
 20375 24092 24093    1
 20376 24092 24094    1
 20377 24095 24096    1
 20378 24095 24097    1
 20379 24098 24099    1
 20380 24098 24100    1
 20381 24101 24102    1
 20382 24101 24103    1
 20383 24104 24105    1
 20384 24104 24106    1
 20385 24107 24108    1
 20386 24107 24109    1
 20387 24110 24111    1
 20388 24110 24112    1
 20389 24113 24114    1
 20390 24113 24115    1
 20391 24116 24117    1
 20392 24116 24118    1
 20393 24119 24120    1
 20394 24119 24121    1
 20395 24122 24123    1
 20396 24122 24124    1
 20397 24125 24126    1
 20398 24125 24127    1
 20399 24128 24129    1
 20400 24128 24130    1
 20401 24131 24132    1
 20402 24131 24133    1
 20403 24134 24135    1
 20404 24134 24136    1
 20405 24137 24138    1
 20406 24137 24139    1
 20407 24140 24141    1
 20408 24140 24142    1
 20409 24143 24144    1
 20410 24143 24145    1
 20411 24146 24147    1
 20412 24146 24148    1
 20413 24149 24150    1
 20414 24149 24151    1
 20415 24152 24153    1
 20416 24152 24154    1
 20417 24155 24156    1
 20418 24155 24157    1
 20419 24158 24159    1
 20420 24158 24160    1
 20421 24161 24162    1
 20422 24161 24163    1
 20423 24164 24165    1
 20424 24164 24166    1
 20425 24167 24168    1
 20426 24167 24169    1
 20427 24170 24171    1
 20428 24170 24172    1
 20429 24173 24174    1
 20430 24173 24175    1
 20431 24176 24177    1
 20432 24176 24178    1
 20433 24179 24180    1
 20434 24179 24181    1
 20435 24182 24183    1
 20436 24182 24184    1
 20437 24185 24186    1
 20438 24185 24187    1
 20439 24188 24189    1
 20440 24188 24190    1
 20441 24191 24192    1
 20442 24191 24193    1
 20443 24194 24195    1
 20444 24194 24196    1
 20445 24197 24198    1
 20446 24197 24199    1
 20447 24200 24201    1
 20448 24200 24202    1
 20449 24203 24204    1
 20450 24203 24205    1
 20451 24206 24207    1
 20452 24206 24208    1
 20453 24209 24210    1
 20454 24209 24211    1
 20455 24212 24213    1
 20456 24212 24214    1
 20457 24215 24216    1
 20458 24215 24217    1
 20459 24218 24219    1
 20460 24218 24220    1
 20461 24221 24222    1
 20462 24221 24223    1
 20463 24224 24225    1
 20464 24224 24226    1
 20465 24227 24228    1
 20466 24227 24229    1
 20467 24230 24231    1
 20468 24230 24232    1
 20469 24233 24234    1
 20470 24233 24235    1
 20471 24236 24237    1
 20472 24236 24238    1
 20473 24239 24240    1
 20474 24239 24241    1
 20475 24242 24243    1
 20476 24242 24244    1
 20477 24245 24246    1
 20478 24245 24247    1
 20479 24248 24249    1
 20480 24248 24250    1
 20481 24251 24252    1
 20482 24251 24253    1
 20483 24254 24255    1
 20484 24254 24256    1
 20485 24257 24258    1
 20486 24257 24259    1
 20487 24260 24261    1
 20488 24260 24262    1
 20489 24263 24264    1
 20490 24263 24265    1
 20491 24266 24267    1
 20492 24266 24268    1
 20493 24269 24270    1
 20494 24269 24271    1
 20495 24272 24273    1
 20496 24272 24274    1
 20497 24275 24276    1
 20498 24275 24277    1
 20499 24278 24279    1
 20500 24278 24280    1
 20501 24281 24282    1
 20502 24281 24283    1
 20503 24284 24285    1
 20504 24284 24286    1
 20505 24287 24288    1
 20506 24287 24289    1
 20507 24290 24291    1
 20508 24290 24292    1
 20509 24293 24294    1
 20510 24293 24295    1
 20511 24296 24297    1
 20512 24296 24298    1
 20513 24299 24300    1
 20514 24299 24301    1
 20515 24302 24303    1
 20516 24302 24304    1
 20517 24305 24306    1
 20518 24305 24307    1
 20519 24308 24309    1
 20520 24308 24310    1
 20521 24311 24312    1
 20522 24311 24313    1
 20523 24314 24315    1
 20524 24314 24316    1
 20525 24317 24318    1
 20526 24317 24319    1
 20527 24320 24321    1
 20528 24320 24322    1
 20529 24323 24324    1
 20530 24323 24325    1
 20531 24326 24327    1
 20532 24326 24328    1
 20533 24329 24330    1
 20534 24329 24331    1
 20535 24332 24333    1
 20536 24332 24334    1
 20537 24335 24336    1
 20538 24335 24337    1
 20539 24338 24339    1
 20540 24338 24340    1
 20541 24341 24342    1
 20542 24341 24343    1
 20543 24344 24345    1
 20544 24344 24346    1
 20545 24347 24348    1
 20546 24347 24349    1
 20547 24350 24351    1
 20548 24350 24352    1
 20549 24353 24354    1
 20550 24353 24355    1
 20551 24356 24357    1
 20552 24356 24358    1
 20553 24359 24360    1
 20554 24359 24361    1
 20555 24362 24363    1
 20556 24362 24364    1
 20557 24365 24366    1
 20558 24365 24367    1
 20559 24368 24369    1
 20560 24368 24370    1
 20561 24371 24372    1
 20562 24371 24373    1
 20563 24374 24375    1
 20564 24374 24376    1
 20565 24377 24378    1
 20566 24377 24379    1
 20567 24380 24381    1
 20568 24380 24382    1
 20569 24383 24384    1
 20570 24383 24385    1
 20571 24386 24387    1
 20572 24386 24388    1
 20573 24389 24390    1
 20574 24389 24391    1
 20575 24392 24393    1
 20576 24392 24394    1
 20577 24395 24396    1
 20578 24395 24397    1
 20579 24398 24399    1
 20580 24398 24400    1
 20581 24401 24402    1
 20582 24401 24403    1
 20583 24404 24405    1
 20584 24404 24406    1
 20585 24407 24408    1
 20586 24407 24409    1
 20587 24410 24411    1
 20588 24410 24412    1
 20589 24413 24414    1
 20590 24413 24415    1
 20591 24416 24417    1
 20592 24416 24418    1
 20593 24419 24420    1
 20594 24419 24421    1
 20595 24422 24423    1
 20596 24422 24424    1
 20597 24425 24426    1
 20598 24425 24427    1
 20599 24428 24429    1
 20600 24428 24430    1
 20601 24431 24432    1
 20602 24431 24433    1
 20603 24434 24435    1
 20604 24434 24436    1
 20605 24437 24438    1
 20606 24437 24439    1
 20607 24440 24441    1
 20608 24440 24442    1
 20609 24443 24444    1
 20610 24443 24445    1
 20611 24446 24447    1
 20612 24446 24448    1
 20613 24449 24450    1
 20614 24449 24451    1
 20615 24452 24453    1
 20616 24452 24454    1
 20617 24455 24456    1
 20618 24455 24457    1
 20619 24458 24459    1
 20620 24458 24460    1
 20621 24461 24462    1
 20622 24461 24463    1
 20623 24464 24465    1
 20624 24464 24466    1
 20625 24467 24468    1
 20626 24467 24469    1
 20627 24470 24471    1
 20628 24470 24472    1
 20629 24473 24474    1
 20630 24473 24475    1
 20631 24476 24477    1
 20632 24476 24478    1
 20633 24479 24480    1
 20634 24479 24481    1
 20635 24482 24483    1
 20636 24482 24484    1
 20637 24485 24486    1
 20638 24485 24487    1
 20639 24488 24489    1
 20640 24488 24490    1
 20641 24491 24492    1
 20642 24491 24493    1
 20643 24494 24495    1
 20644 24494 24496    1
 20645 24497 24498    1
 20646 24497 24499    1
 20647 24500 24501    1
 20648 24500 24502    1
 20649 24503 24504    1
 20650 24503 24505    1
 20651 24506 24507    1
 20652 24506 24508    1
 20653 24509 24510    1
 20654 24509 24511    1
 20655 24512 24513    1
 20656 24512 24514    1
 20657 24515 24516    1
 20658 24515 24517    1
 20659 24518 24519    1
 20660 24518 24520    1
 20661 24521 24522    1
 20662 24521 24523    1
 20663 24524 24525    1
 20664 24524 24526    1
 20665 24527 24528    1
 20666 24527 24529    1
 20667 24530 24531    1
 20668 24530 24532    1
 20669 24533 24534    1
 20670 24533 24535    1
 20671 24536 24537    1
 20672 24536 24538    1
 20673 24539 24540    1
 20674 24539 24541    1
 20675 24542 24543    1
 20676 24542 24544    1
 20677 24545 24546    1
 20678 24545 24547    1
 20679 24548 24549    1
 20680 24548 24550    1
 20681 24551 24552    1
 20682 24551 24553    1
 20683 24554 24555    1
 20684 24554 24556    1
 20685 24557 24558    1
 20686 24557 24559    1
 20687 24560 24561    1
 20688 24560 24562    1
 20689 24563 24564    1
 20690 24563 24565    1
 20691 24566 24567    1
 20692 24566 24568    1
 20693 24569 24570    1
 20694 24569 24571    1
 20695 24572 24573    1
 20696 24572 24574    1
 20697 24575 24576    1
 20698 24575 24577    1
 20699 24578 24579    1
 20700 24578 24580    1
 20701 24581 24582    1
 20702 24581 24583    1
 20703 24584 24585    1
 20704 24584 24586    1
 20705 24587 24588    1
 20706 24587 24589    1
 20707 24590 24591    1
 20708 24590 24592    1
 20709 24593 24594    1
 20710 24593 24595    1
 20711 24596 24597    1
 20712 24596 24598    1
 20713 24599 24600    1
 20714 24599 24601    1
 20715 24602 24603    1
 20716 24602 24604    1
 20717 24605 24606    1
 20718 24605 24607    1
 20719 24608 24609    1
 20720 24608 24610    1
 20721 24611 24612    1
 20722 24611 24613    1
 20723 24614 24615    1
 20724 24614 24616    1
 20725 24617 24618    1
 20726 24617 24619    1
 20727 24620 24621    1
 20728 24620 24622    1
 20729 24623 24624    1
 20730 24623 24625    1
 20731 24626 24627    1
 20732 24626 24628    1
 20733 24629 24630    1
 20734 24629 24631    1
 20735 24632 24633    1
 20736 24632 24634    1
 20737 24635 24636    1
 20738 24635 24637    1
 20739 24638 24639    1
 20740 24638 24640    1
 20741 24641 24642    1
 20742 24641 24643    1
 20743 24644 24645    1
 20744 24644 24646    1
 20745 24647 24648    1
 20746 24647 24649    1
 20747 24650 24651    1
 20748 24650 24652    1
 20749 24653 24654    1
 20750 24653 24655    1
 20751 24656 24657    1
 20752 24656 24658    1
 20753 24659 24660    1
 20754 24659 24661    1
 20755 24662 24663    1
 20756 24662 24664    1
 20757 24665 24666    1
 20758 24665 24667    1
 20759 24668 24669    1
 20760 24668 24670    1
 20761 24671 24672    1
 20762 24671 24673    1
 20763 24674 24675    1
 20764 24674 24676    1
 20765 24677 24678    1
 20766 24677 24679    1
 20767 24680 24681    1
 20768 24680 24682    1
 20769 24683 24684    1
 20770 24683 24685    1
 20771 24686 24687    1
 20772 24686 24688    1
 20773 24689 24690    1
 20774 24689 24691    1
 20775 24692 24693    1
 20776 24692 24694    1
 20777 24695 24696    1
 20778 24695 24697    1
 20779 24698 24699    1
 20780 24698 24700    1
 20781 24701 24702    1
 20782 24701 24703    1
 20783 24704 24705    1
 20784 24704 24706    1
 20785 24707 24708    1
 20786 24707 24709    1
 20787 24710 24711    1
 20788 24710 24712    1
 20789 24713 24714    1
 20790 24713 24715    1
 20791 24716 24717    1
 20792 24716 24718    1
 20793 24719 24720    1
 20794 24719 24721    1
 20795 24722 24723    1
 20796 24722 24724    1
 20797 24725 24726    1
 20798 24725 24727    1
 20799 24728 24729    1
 20800 24728 24730    1
 20801 24731 24732    1
 20802 24731 24733    1
 20803 24734 24735    1
 20804 24734 24736    1
 20805 24737 24738    1
 20806 24737 24739    1
 20807 24740 24741    1
 20808 24740 24742    1
 20809 24743 24744    1
 20810 24743 24745    1
 20811 24746 24747    1
 20812 24746 24748    1
 20813 24749 24750    1
 20814 24749 24751    1
 20815 24752 24753    1
 20816 24752 24754    1
 20817 24755 24756    1
 20818 24755 24757    1
 20819 24758 24759    1
 20820 24758 24760    1
 20821 24761 24762    1
 20822 24761 24763    1
 20823 24764 24765    1
 20824 24764 24766    1
 20825 24767 24768    1
 20826 24767 24769    1
 20827 24770 24771    1
 20828 24770 24772    1
 20829 24773 24774    1
 20830 24773 24775    1
 20831 24776 24777    1
 20832 24776 24778    1
 20833 24779 24780    1
 20834 24779 24781    1
 20835 24782 24783    1
 20836 24782 24784    1
 20837 24785 24786    1
 20838 24785 24787    1
 20839 24788 24789    1
 20840 24788 24790    1
 20841 24791 24792    1
 20842 24791 24793    1
 20843 24794 24795    1
 20844 24794 24796    1
 20845 24797 24798    1
 20846 24797 24799    1
 20847 24800 24801    1
 20848 24800 24802    1
 20849 24803 24804    1
 20850 24803 24805    1
 20851 24806 24807    1
 20852 24806 24808    1
 20853 24809 24810    1
 20854 24809 24811    1
 20855 24812 24813    1
 20856 24812 24814    1
 20857 24815 24816    1
 20858 24815 24817    1
 20859 24818 24819    1
 20860 24818 24820    1
 20861 24821 24822    1
 20862 24821 24823    1
 20863 24824 24825    1
 20864 24824 24826    1
 20865 24827 24828    1
 20866 24827 24829    1
 20867 24830 24831    1
 20868 24830 24832    1
 20869 24833 24834    1
 20870 24833 24835    1
 20871 24836 24837    1
 20872 24836 24838    1
 20873 24839 24840    1
 20874 24839 24841    1
 20875 24842 24843    1
 20876 24842 24844    1
 20877 24845 24846    1
 20878 24845 24847    1
 20879 24848 24849    1
 20880 24848 24850    1
 20881 24851 24852    1
 20882 24851 24853    1
 20883 24854 24855    1
 20884 24854 24856    1
 20885 24857 24858    1
 20886 24857 24859    1
 20887 24860 24861    1
 20888 24860 24862    1
 20889 24863 24864    1
 20890 24863 24865    1
 20891 24866 24867    1
 20892 24866 24868    1
 20893 24869 24870    1
 20894 24869 24871    1
 20895 24872 24873    1
 20896 24872 24874    1
 20897 24875 24876    1
 20898 24875 24877    1
 20899 24878 24879    1
 20900 24878 24880    1
 20901 24881 24882    1
 20902 24881 24883    1
 20903 24884 24885    1
 20904 24884 24886    1
 20905 24887 24888    1
 20906 24887 24889    1
 20907 24890 24891    1
 20908 24890 24892    1
 20909 24893 24894    1
 20910 24893 24895    1
 20911 24896 24897    1
 20912 24896 24898    1
 20913 24899 24900    1
 20914 24899 24901    1
 20915 24902 24903    1
 20916 24902 24904    1
 20917 24905 24906    1
 20918 24905 24907    1
 20919 24908 24909    1
 20920 24908 24910    1
 20921 24911 24912    1
 20922 24911 24913    1
 20923 24914 24915    1
 20924 24914 24916    1
 20925 24917 24918    1
 20926 24917 24919    1
 20927 24920 24921    1
 20928 24920 24922    1
 20929 24923 24924    1
 20930 24923 24925    1
 20931 24926 24927    1
 20932 24926 24928    1
 20933 24929 24930    1
 20934 24929 24931    1
 20935 24932 24933    1
 20936 24932 24934    1
 20937 24935 24936    1
 20938 24935 24937    1
 20939 24938 24939    1
 20940 24938 24940    1
 20941 24941 24942    1
 20942 24941 24943    1
 20943 24944 24945    1
 20944 24944 24946    1
 20945 24947 24948    1
 20946 24947 24949    1
 20947 24950 24951    1
 20948 24950 24952    1
 20949 24953 24954    1
 20950 24953 24955    1
 20951 24956 24957    1
 20952 24956 24958    1
 20953 24959 24960    1
 20954 24959 24961    1
 20955 24962 24963    1
 20956 24962 24964    1
 20957 24965 24966    1
 20958 24965 24967    1
 20959 24968 24969    1
 20960 24968 24970    1
 20961 24971 24972    1
 20962 24971 24973    1
 20963 24974 24975    1
 20964 24974 24976    1
 20965 24977 24978    1
 20966 24977 24979    1
 20967 24980 24981    1
 20968 24980 24982    1
 20969 24983 24984    1
 20970 24983 24985    1
 20971 24986 24987    1
 20972 24986 24988    1
 20973 24989 24990    1
 20974 24989 24991    1
 20975 24992 24993    1
 20976 24992 24994    1
 20977 24995 24996    1
 20978 24995 24997    1
 20979 24998 24999    1
 20980 24998 25000    1
 20981 25001 25002    1
 20982 25001 25003    1
 20983 25004 25005    1
 20984 25004 25006    1
 20985 25007 25008    1
 20986 25007 25009    1
 20987 25010 25011    1
 20988 25010 25012    1
 20989 25013 25014    1
 20990 25013 25015    1
 20991 25016 25017    1
 20992 25016 25018    1
 20993 25019 25020    1
 20994 25019 25021    1
 20995 25022 25023    1
 20996 25022 25024    1
 20997 25025 25026    1
 20998 25025 25027    1
 20999 25028 25029    1
 21000 25028 25030    1
 21001 25031 25032    1
 21002 25031 25033    1
 21003 25034 25035    1
 21004 25034 25036    1
 21005 25037 25038    1
 21006 25037 25039    1
 21007 25040 25041    1
 21008 25040 25042    1
 21009 25043 25044    1
 21010 25043 25045    1
 21011 25046 25047    1
 21012 25046 25048    1
 21013 25049 25050    1
 21014 25049 25051    1
 21015 25052 25053    1
 21016 25052 25054    1
 21017 25055 25056    1
 21018 25055 25057    1
 21019 25058 25059    1
 21020 25058 25060    1
 21021 25061 25062    1
 21022 25061 25063    1
 21023 25064 25065    1
 21024 25064 25066    1
 21025 25067 25068    1
 21026 25067 25069    1
 21027 25070 25071    1
 21028 25070 25072    1
 21029 25073 25074    1
 21030 25073 25075    1
 21031 25076 25077    1
 21032 25076 25078    1
 21033 25079 25080    1
 21034 25079 25081    1
 21035 25082 25083    1
 21036 25082 25084    1
 21037 25085 25086    1
 21038 25085 25087    1
 21039 25088 25089    1
 21040 25088 25090    1
 21041 25091 25092    1
 21042 25091 25093    1
 21043 25094 25095    1
 21044 25094 25096    1
 21045 25097 25098    1
 21046 25097 25099    1
 21047 25100 25101    1
 21048 25100 25102    1
 21049 25103 25104    1
 21050 25103 25105    1
 21051 25106 25107    1
 21052 25106 25108    1
 21053 25109 25110    1
 21054 25109 25111    1
 21055 25112 25113    1
 21056 25112 25114    1
 21057 25115 25116    1
 21058 25115 25117    1
 21059 25118 25119    1
 21060 25118 25120    1
 21061 25121 25122    1
 21062 25121 25123    1
 21063 25124 25125    1
 21064 25124 25126    1
 21065 25127 25128    1
 21066 25127 25129    1
 21067 25130 25131    1
 21068 25130 25132    1
 21069 25133 25134    1
 21070 25133 25135    1
 21071 25136 25137    1
 21072 25136 25138    1
 21073 25139 25140    1
 21074 25139 25141    1
 21075 25142 25143    1
 21076 25142 25144    1
 21077 25145 25146    1
 21078 25145 25147    1
 21079 25148 25149    1
 21080 25148 25150    1
 21081 25151 25152    1
 21082 25151 25153    1
 21083 25154 25155    1
 21084 25154 25156    1
 21085 25157 25158    1
 21086 25157 25159    1
 21087 25160 25161    1
 21088 25160 25162    1
 21089 25163 25164    1
 21090 25163 25165    1
 21091 25166 25167    1
 21092 25166 25168    1
 21093 25169 25170    1
 21094 25169 25171    1
 21095 25172 25173    1
 21096 25172 25174    1
 21097 25175 25176    1
 21098 25175 25177    1
 21099 25178 25179    1
 21100 25178 25180    1
 21101 25181 25182    1
 21102 25181 25183    1
 21103 25184 25185    1
 21104 25184 25186    1
 21105 25187 25188    1
 21106 25187 25189    1
 21107 25190 25191    1
 21108 25190 25192    1
 21109 25193 25194    1
 21110 25193 25195    1
 21111 25196 25197    1
 21112 25196 25198    1
 21113 25199 25200    1
 21114 25199 25201    1
 21115 25202 25203    1
 21116 25202 25204    1
 21117 25205 25206    1
 21118 25205 25207    1
 21119 25208 25209    1
 21120 25208 25210    1
 21121 25211 25212    1
 21122 25211 25213    1
 21123 25214 25215    1
 21124 25214 25216    1
 21125 25217 25218    1
 21126 25217 25219    1
 21127 25220 25221    1
 21128 25220 25222    1
 21129 25223 25224    1
 21130 25223 25225    1
 21131 25226 25227    1
 21132 25226 25228    1
 21133 25229 25230    1
 21134 25229 25231    1
 21135 25232 25233    1
 21136 25232 25234    1
 21137 25235 25236    1
 21138 25235 25237    1
 21139 25238 25239    1
 21140 25238 25240    1
 21141 25241 25242    1
 21142 25241 25243    1
 21143 25244 25245    1
 21144 25244 25246    1
 21145 25247 25248    1
 21146 25247 25249    1
 21147 25250 25251    1
 21148 25250 25252    1
 21149 25253 25254    1
 21150 25253 25255    1
 21151 25256 25257    1
 21152 25256 25258    1
 21153 25259 25260    1
 21154 25259 25261    1
 21155 25262 25263    1
 21156 25262 25264    1
 21157 25265 25266    1
 21158 25265 25267    1
 21159 25268 25269    1
 21160 25268 25270    1
 21161 25271 25272    1
 21162 25271 25273    1
 21163 25274 25275    1
 21164 25274 25276    1
 21165 25277 25278    1
 21166 25277 25279    1
 21167 25280 25281    1
 21168 25280 25282    1
 21169 25283 25284    1
 21170 25283 25285    1
 21171 25286 25287    1
 21172 25286 25288    1
 21173 25289 25290    1
 21174 25289 25291    1
 21175 25292 25293    1
 21176 25292 25294    1
 21177 25295 25296    1
 21178 25295 25297    1
 21179 25298 25299    1
 21180 25298 25300    1
 21181 25301 25302    1
 21182 25301 25303    1
 21183 25304 25305    1
 21184 25304 25306    1
 21185 25307 25308    1
 21186 25307 25309    1
 21187 25310 25311    1
 21188 25310 25312    1
 21189 25313 25314    1
 21190 25313 25315    1
 21191 25316 25317    1
 21192 25316 25318    1
 21193 25319 25320    1
 21194 25319 25321    1
 21195 25322 25323    1
 21196 25322 25324    1
 21197 25325 25326    1
 21198 25325 25327    1
 21199 25328 25329    1
 21200 25328 25330    1
 21201 25331 25332    1
 21202 25331 25333    1
 21203 25334 25335    1
 21204 25334 25336    1
 21205 25337 25338    1
 21206 25337 25339    1
 21207 25340 25341    1
 21208 25340 25342    1
 21209 25343 25344    1
 21210 25343 25345    1
 21211 25346 25347    1
 21212 25346 25348    1
 21213 25349 25350    1
 21214 25349 25351    1
 21215 25352 25353    1
 21216 25352 25354    1
 21217 25355 25356    1
 21218 25355 25357    1
 21219 25358 25359    1
 21220 25358 25360    1
 21221 25361 25362    1
 21222 25361 25363    1
 21223 25364 25365    1
 21224 25364 25366    1
 21225 25367 25368    1
 21226 25367 25369    1
 21227 25370 25371    1
 21228 25370 25372    1
 21229 25373 25374    1
 21230 25373 25375    1
 21231 25376 25377    1
 21232 25376 25378    1
 21233 25379 25380    1
 21234 25379 25381    1
 21235 25382 25383    1
 21236 25382 25384    1
 21237 25385 25386    1
 21238 25385 25387    1
 21239 25388 25389    1
 21240 25388 25390    1
 21241 25391 25392    1
 21242 25391 25393    1
 21243 25394 25395    1
 21244 25394 25396    1
 21245 25397 25398    1
 21246 25397 25399    1
 21247 25400 25401    1
 21248 25400 25402    1
 21249 25403 25404    1
 21250 25403 25405    1
 21251 25406 25407    1
 21252 25406 25408    1
 21253 25409 25410    1
 21254 25409 25411    1
 21255 25412 25413    1
 21256 25412 25414    1
 21257 25415 25416    1
 21258 25415 25417    1
 21259 25418 25419    1
 21260 25418 25420    1
 21261 25421 25422    1
 21262 25421 25423    1
 21263 25424 25425    1
 21264 25424 25426    1
 21265 25427 25428    1
 21266 25427 25429    1
 21267 25430 25431    1
 21268 25430 25432    1
 21269 25433 25434    1
 21270 25433 25435    1
 21271 25436 25437    1
 21272 25436 25438    1
 21273 25439 25440    1
 21274 25439 25441    1
 21275 25442 25443    1
 21276 25442 25444    1
 21277 25445 25446    1
 21278 25445 25447    1
 21279 25448 25449    1
 21280 25448 25450    1
 21281 25451 25452    1
 21282 25451 25453    1
 21283 25454 25455    1
 21284 25454 25456    1
 21285 25457 25458    1
 21286 25457 25459    1
 21287 25460 25461    1
 21288 25460 25462    1
 21289 25463 25464    1
 21290 25463 25465    1
 21291 25466 25467    1
 21292 25466 25468    1
 21293 25469 25470    1
 21294 25469 25471    1
 21295 25472 25473    1
 21296 25472 25474    1
 21297 25475 25476    1
 21298 25475 25477    1
 21299 25478 25479    1
 21300 25478 25480    1
 21301 25481 25482    1
 21302 25481 25483    1
 21303 25484 25485    1
 21304 25484 25486    1
 21305 25487 25488    1
 21306 25487 25489    1
 21307 25490 25491    1
 21308 25490 25492    1
 21309 25493 25494    1
 21310 25493 25495    1
 21311 25496 25497    1
 21312 25496 25498    1
 21313 25499 25500    1
 21314 25499 25501    1
 21315 25502 25503    1
 21316 25502 25504    1
 21317 25505 25506    1
 21318 25505 25507    1
 21319 25508 25509    1
 21320 25508 25510    1
 21321 25511 25512    1
 21322 25511 25513    1
 21323 25514 25515    1
 21324 25514 25516    1
 21325 25517 25518    1
 21326 25517 25519    1
 21327 25520 25521    1
 21328 25520 25522    1
 21329 25523 25524    1
 21330 25523 25525    1
 21331 25526 25527    1
 21332 25526 25528    1
 21333 25529 25530    1
 21334 25529 25531    1
 21335 25532 25533    1
 21336 25532 25534    1
 21337 25535 25536    1
 21338 25535 25537    1
 21339 25538 25539    1
 21340 25538 25540    1
 21341 25541 25542    1
 21342 25541 25543    1
 21343 25544 25545    1
 21344 25544 25546    1
 21345 25547 25548    1
 21346 25547 25549    1
 21347 25550 25551    1
 21348 25550 25552    1
 21349 25553 25554    1
 21350 25553 25555    1
 21351 25556 25557    1
 21352 25556 25558    1
 21353 25559 25560    1
 21354 25559 25561    1
 21355 25562 25563    1
 21356 25562 25564    1
 21357 25565 25566    1
 21358 25565 25567    1
 21359 25568 25569    1
 21360 25568 25570    1
 21361 25571 25572    1
 21362 25571 25573    1
 21363 25574 25575    1
 21364 25574 25576    1
 21365 25577 25578    1
 21366 25577 25579    1
 21367 25580 25581    1
 21368 25580 25582    1
 21369 25583 25584    1
 21370 25583 25585    1
 21371 25586 25587    1
 21372 25586 25588    1
 21373 25589 25590    1
 21374 25589 25591    1
 21375 25592 25593    1
 21376 25592 25594    1
 21377 25595 25596    1
 21378 25595 25597    1
 21379 25598 25599    1
 21380 25598 25600    1
 21381 25601 25602    1
 21382 25601 25603    1
 21383 25604 25605    1
 21384 25604 25606    1
 21385 25607 25608    1
 21386 25607 25609    1
 21387 25610 25611    1
 21388 25610 25612    1
 21389 25613 25614    1
 21390 25613 25615    1
 21391 25616 25617    1
 21392 25616 25618    1
 21393 25619 25620    1
 21394 25619 25621    1
 21395 25622 25623    1
 21396 25622 25624    1
 21397 25625 25626    1
 21398 25625 25627    1
 21399 25628 25629    1
 21400 25628 25630    1
 21401 25631 25632    1
 21402 25631 25633    1
 21403 25634 25635    1
 21404 25634 25636    1
 21405 25637 25638    1
 21406 25637 25639    1
 21407 25640 25641    1
 21408 25640 25642    1
 21409 25643 25644    1
 21410 25643 25645    1
 21411 25646 25647    1
 21412 25646 25648    1
 21413 25649 25650    1
 21414 25649 25651    1
 21415 25652 25653    1
 21416 25652 25654    1
 21417 25655 25656    1
 21418 25655 25657    1
 21419 25658 25659    1
 21420 25658 25660    1
 21421 25661 25662    1
 21422 25661 25663    1
 21423 25664 25665    1
 21424 25664 25666    1
 21425 25667 25668    1
 21426 25667 25669    1
 21427 25670 25671    1
 21428 25670 25672    1
 21429 25673 25674    1
 21430 25673 25675    1
 21431 25676 25677    1
 21432 25676 25678    1
 21433 25679 25680    1
 21434 25679 25681    1
 21435 25682 25683    1
 21436 25682 25684    1
 21437 25685 25686    1
 21438 25685 25687    1
 21439 25688 25689    1
 21440 25688 25690    1
 21441 25691 25692    1
 21442 25691 25693    1
 21443 25694 25695    1
 21444 25694 25696    1
 21445 25697 25698    1
 21446 25697 25699    1
 21447 25700 25701    1
 21448 25700 25702    1
 21449 25703 25704    1
 21450 25703 25705    1
 21451 25706 25707    1
 21452 25706 25708    1
 21453 25709 25710    1
 21454 25709 25711    1
 21455 25712 25713    1
 21456 25712 25714    1
 21457 25715 25716    1
 21458 25715 25717    1
 21459 25718 25719    1
 21460 25718 25720    1
 21461 25721 25722    1
 21462 25721 25723    1
 21463 25724 25725    1
 21464 25724 25726    1
 21465 25727 25728    1
 21466 25727 25729    1
 21467 25730 25731    1
 21468 25730 25732    1
 21469 25733 25734    1
 21470 25733 25735    1
 21471 25736 25737    1
 21472 25736 25738    1
 21473 25739 25740    1
 21474 25739 25741    1
 21475 25742 25743    1
 21476 25742 25744    1
 21477 25745 25746    1
 21478 25745 25747    1
 21479 25748 25749    1
 21480 25748 25750    1
 21481 25751 25752    1
 21482 25751 25753    1
 21483 25754 25755    1
 21484 25754 25756    1
 21485 25757 25758    1
 21486 25757 25759    1
 21487 25760 25761    1
 21488 25760 25762    1
 21489 25763 25764    1
 21490 25763 25765    1
 21491 25766 25767    1
 21492 25766 25768    1
 21493 25769 25770    1
 21494 25769 25771    1
 21495 25772 25773    1
 21496 25772 25774    1
 21497 25775 25776    1
 21498 25775 25777    1
 21499 25778 25779    1
 21500 25778 25780    1
 21501 25781 25782    1
 21502 25781 25783    1
 21503 25784 25785    1
 21504 25784 25786    1
 21505 25787 25788    1
 21506 25787 25789    1
 21507 25790 25791    1
 21508 25790 25792    1
 21509 25793 25794    1
 21510 25793 25795    1
 21511 25796 25797    1
 21512 25796 25798    1
 21513 25799 25800    1
 21514 25799 25801    1
 21515 25802 25803    1
 21516 25802 25804    1
 21517 25805 25806    1
 21518 25805 25807    1
 21519 25808 25809    1
 21520 25808 25810    1
 21521 25811 25812    1
 21522 25811 25813    1
 21523 25814 25815    1
 21524 25814 25816    1
 21525 25817 25818    1
 21526 25817 25819    1
 21527 25820 25821    1
 21528 25820 25822    1
 21529 25823 25824    1
 21530 25823 25825    1
 21531 25826 25827    1
 21532 25826 25828    1
 21533 25829 25830    1
 21534 25829 25831    1
 21535 25832 25833    1
 21536 25832 25834    1
 21537 25835 25836    1
 21538 25835 25837    1
 21539 25838 25839    1
 21540 25838 25840    1
 21541 25841 25842    1
 21542 25841 25843    1
 21543 25844 25845    1
 21544 25844 25846    1
 21545 25847 25848    1
 21546 25847 25849    1
 21547 25850 25851    1
 21548 25850 25852    1
 21549 25853 25854    1
 21550 25853 25855    1
 21551 25856 25857    1
 21552 25856 25858    1
 21553 25859 25860    1
 21554 25859 25861    1
 21555 25862 25863    1
 21556 25862 25864    1
 21557 25865 25866    1
 21558 25865 25867    1
 21559 25868 25869    1
 21560 25868 25870    1
 21561 25871 25872    1
 21562 25871 25873    1
 21563 25874 25875    1
 21564 25874 25876    1
 21565 25877 25878    1
 21566 25877 25879    1
 21567 25880 25881    1
 21568 25880 25882    1
 21569 25883 25884    1
 21570 25883 25885    1
 21571 25886 25887    1
 21572 25886 25888    1
 21573 25889 25890    1
 21574 25889 25891    1
 21575 25892 25893    1
 21576 25892 25894    1
 21577 25895 25896    1
 21578 25895 25897    1
 21579 25898 25899    1
 21580 25898 25900    1
 21581 25901 25902    1
 21582 25901 25903    1
 21583 25904 25905    1
 21584 25904 25906    1
 21585 25907 25908    1
 21586 25907 25909    1
 21587 25910 25911    1
 21588 25910 25912    1
 21589 25913 25914    1
 21590 25913 25915    1
 21591 25916 25917    1
 21592 25916 25918    1
 21593 25919 25920    1
 21594 25919 25921    1
 21595 25922 25923    1
 21596 25922 25924    1
 21597 25925 25926    1
 21598 25925 25927    1
 21599 25928 25929    1
 21600 25928 25930    1
 21601 25931 25932    1
 21602 25931 25933    1
 21603 25934 25935    1
 21604 25934 25936    1
 21605 25937 25938    1
 21606 25937 25939    1
 21607 25940 25941    1
 21608 25940 25942    1
 21609 25943 25944    1
 21610 25943 25945    1
 21611 25946 25947    1
 21612 25946 25948    1
 21613 25949 25950    1
 21614 25949 25951    1
 21615 25952 25953    1
 21616 25952 25954    1
 21617 25955 25956    1
 21618 25955 25957    1
 21619 25958 25959    1
 21620 25958 25960    1
 21621 25961 25962    1
 21622 25961 25963    1
 21623 25964 25965    1
 21624 25964 25966    1
 21625 25967 25968    1
 21626 25967 25969    1
 21627 25970 25971    1
 21628 25970 25972    1
 21629 25973 25974    1
 21630 25973 25975    1
 21631 25976 25977    1
 21632 25976 25978    1
 21633 25979 25980    1
 21634 25979 25981    1
 21635 25982 25983    1
 21636 25982 25984    1
 21637 25985 25986    1
 21638 25985 25987    1
 21639 25988 25989    1
 21640 25988 25990    1
 21641 25991 25992    1
 21642 25991 25993    1
 21643 25994 25995    1
 21644 25994 25996    1
 21645 25997 25998    1
 21646 25997 25999    1
 21647 26000 26001    1
 21648 26000 26002    1
 21649 26003 26004    1
 21650 26003 26005    1
 21651 26006 26007    1
 21652 26006 26008    1
 21653 26009 26010    1
 21654 26009 26011    1
 21655 26012 26013    1
 21656 26012 26014    1
 21657 26015 26016    1
 21658 26015 26017    1
 21659 26018 26019    1
 21660 26018 26020    1
 21661 26021 26022    1
 21662 26021 26023    1
 21663 26024 26025    1
 21664 26024 26026    1
 21665 26027 26028    1
 21666 26027 26029    1
 21667 26030 26031    1
 21668 26030 26032    1
 21669 26033 26034    1
 21670 26033 26035    1
 21671 26036 26037    1
 21672 26036 26038    1
 21673 26039 26040    1
 21674 26039 26041    1
 21675 26042 26043    1
 21676 26042 26044    1
 21677 26045 26046    1
 21678 26045 26047    1
 21679 26048 26049    1
 21680 26048 26050    1
 21681 26051 26052    1
 21682 26051 26053    1
 21683 26054 26055    1
 21684 26054 26056    1
 21685 26057 26058    1
 21686 26057 26059    1
 21687 26060 26061    1
 21688 26060 26062    1
 21689 26063 26064    1
 21690 26063 26065    1
 21691 26066 26067    1
 21692 26066 26068    1
 21693 26069 26070    1
 21694 26069 26071    1
 21695 26072 26073    1
 21696 26072 26074    1
 21697 26075 26076    1
 21698 26075 26077    1
 21699 26078 26079    1
 21700 26078 26080    1
 21701 26081 26082    1
 21702 26081 26083    1
 21703 26084 26085    1
 21704 26084 26086    1
 21705 26087 26088    1
 21706 26087 26089    1
 21707 26090 26091    1
 21708 26090 26092    1
 21709 26093 26094    1
 21710 26093 26095    1
 21711 26096 26097    1
 21712 26096 26098    1
 21713 26099 26100    1
 21714 26099 26101    1
 21715 26102 26103    1
 21716 26102 26104    1
 21717 26105 26106    1
 21718 26105 26107    1
 21719 26108 26109    1
 21720 26108 26110    1
 21721 26111 26112    1
 21722 26111 26113    1
 21723 26114 26115    1
 21724 26114 26116    1
 21725 26117 26118    1
 21726 26117 26119    1
 21727 26120 26121    1
 21728 26120 26122    1
 21729 26123 26124    1
 21730 26123 26125    1
 21731 26126 26127    1
 21732 26126 26128    1
 21733 26129 26130    1
 21734 26129 26131    1
 21735 26132 26133    1
 21736 26132 26134    1
 21737 26135 26136    1
 21738 26135 26137    1
 21739 26138 26139    1
 21740 26138 26140    1
 21741 26141 26142    1
 21742 26141 26143    1
 21743 26144 26145    1
 21744 26144 26146    1
 21745 26147 26148    1
 21746 26147 26149    1
 21747 26150 26151    1
 21748 26150 26152    1
 21749 26153 26154    1
 21750 26153 26155    1
 21751 26156 26157    1
 21752 26156 26158    1
 21753 26159 26160    1
 21754 26159 26161    1
 21755 26162 26163    1
 21756 26162 26164    1
 21757 26165 26166    1
 21758 26165 26167    1
 21759 26168 26169    1
 21760 26168 26170    1
 21761 26171 26172    1
 21762 26171 26173    1
 21763 26174 26175    1
 21764 26174 26176    1
 21765 26177 26178    1
 21766 26177 26179    1
 21767 26180 26181    1
 21768 26180 26182    1
 21769 26183 26184    1
 21770 26183 26185    1
 21771 26186 26187    1
 21772 26186 26188    1
 21773 26189 26190    1
 21774 26189 26191    1
 21775 26192 26193    1
 21776 26192 26194    1
 21777 26195 26196    1
 21778 26195 26197    1
 21779 26198 26199    1
 21780 26198 26200    1
 21781 26201 26202    1
 21782 26201 26203    1
 21783 26204 26205    1
 21784 26204 26206    1
 21785 26207 26208    1
 21786 26207 26209    1
 21787 26210 26211    1
 21788 26210 26212    1
 21789 26213 26214    1
 21790 26213 26215    1
 21791 26216 26217    1
 21792 26216 26218    1
 21793 26219 26220    1
 21794 26219 26221    1
 21795 26222 26223    1
 21796 26222 26224    1
 21797 26225 26226    1
 21798 26225 26227    1
 21799 26228 26229    1
 21800 26228 26230    1
 21801 26231 26232    1
 21802 26231 26233    1
 21803 26234 26235    1
 21804 26234 26236    1
 21805 26237 26238    1
 21806 26237 26239    1
 21807 26240 26241    1
 21808 26240 26242    1
 21809 26243 26244    1
 21810 26243 26245    1
 21811 26246 26247    1
 21812 26246 26248    1
 21813 26249 26250    1
 21814 26249 26251    1
 21815 26252 26253    1
 21816 26252 26254    1
 21817 26255 26256    1
 21818 26255 26257    1
 21819 26258 26259    1
 21820 26258 26260    1
 21821 26261 26262    1
 21822 26261 26263    1
 21823 26264 26265    1
 21824 26264 26266    1
 21825 26267 26268    1
 21826 26267 26269    1
 21827 26270 26271    1
 21828 26270 26272    1
 21829 26273 26274    1
 21830 26273 26275    1
 21831 26276 26277    1
 21832 26276 26278    1
 21833 26279 26280    1
 21834 26279 26281    1
 21835 26282 26283    1
 21836 26282 26284    1
 21837 26285 26286    1
 21838 26285 26287    1
 21839 26288 26289    1
 21840 26288 26290    1
 21841 26291 26292    1
 21842 26291 26293    1
 21843 26294 26295    1
 21844 26294 26296    1
 21845 26297 26298    1
 21846 26297 26299    1
 21847 26300 26301    1
 21848 26300 26302    1
 21849 26303 26304    1
 21850 26303 26305    1
 21851 26306 26307    1
 21852 26306 26308    1
 21853 26309 26310    1
 21854 26309 26311    1
 21855 26312 26313    1
 21856 26312 26314    1
 21857 26315 26316    1
 21858 26315 26317    1
 21859 26318 26319    1
 21860 26318 26320    1
 21861 26321 26322    1
 21862 26321 26323    1
 21863 26324 26325    1
 21864 26324 26326    1
 21865 26327 26328    1
 21866 26327 26329    1
 21867 26330 26331    1
 21868 26330 26332    1
 21869 26333 26334    1
 21870 26333 26335    1
 21871 26336 26337    1
 21872 26336 26338    1
 21873 26339 26340    1
 21874 26339 26341    1
 21875 26342 26343    1
 21876 26342 26344    1
 21877 26345 26346    1
 21878 26345 26347    1
 21879 26348 26349    1
 21880 26348 26350    1
 21881 26351 26352    1
 21882 26351 26353    1
 21883 26354 26355    1
 21884 26354 26356    1
 21885 26357 26358    1
 21886 26357 26359    1
 21887 26360 26361    1
 21888 26360 26362    1
 21889 26363 26364    1
 21890 26363 26365    1
 21891 26366 26367    1
 21892 26366 26368    1
 21893 26369 26370    1
 21894 26369 26371    1
 21895 26372 26373    1
 21896 26372 26374    1
 21897 26375 26376    1
 21898 26375 26377    1
 21899 26378 26379    1
 21900 26378 26380    1
 21901 26381 26382    1
 21902 26381 26383    1
 21903 26384 26385    1
 21904 26384 26386    1
 21905 26387 26388    1
 21906 26387 26389    1
 21907 26390 26391    1
 21908 26390 26392    1
 21909 26393 26394    1
 21910 26393 26395    1
 21911 26396 26397    1
 21912 26396 26398    1
 21913 26399 26400    1
 21914 26399 26401    1
 21915 26402 26403    1
 21916 26402 26404    1
 21917 26405 26406    1
 21918 26405 26407    1
 21919 26408 26409    1
 21920 26408 26410    1
 21921 26411 26412    1
 21922 26411 26413    1
 21923 26414 26415    1
 21924 26414 26416    1
 21925 26417 26418    1
 21926 26417 26419    1
 21927 26420 26421    1
 21928 26420 26422    1
 21929 26423 26424    1
 21930 26423 26425    1
 21931 26426 26427    1
 21932 26426 26428    1
 21933 26429 26430    1
 21934 26429 26431    1
 21935 26432 26433    1
 21936 26432 26434    1
 21937 26435 26436    1
 21938 26435 26437    1
 21939 26438 26439    1
 21940 26438 26440    1
 21941 26441 26442    1
 21942 26441 26443    1
 21943 26444 26445    1
 21944 26444 26446    1
 21945 26447 26448    1
 21946 26447 26449    1
 21947 26450 26451    1
 21948 26450 26452    1
 21949 26453 26454    1
 21950 26453 26455    1
 21951 26456 26457    1
 21952 26456 26458    1
 21953 26459 26460    1
 21954 26459 26461    1
 21955 26462 26463    1
 21956 26462 26464    1
 21957 26465 26466    1
 21958 26465 26467    1
 21959 26468 26469    1
 21960 26468 26470    1
 21961 26471 26472    1
 21962 26471 26473    1
 21963 26474 26475    1
 21964 26474 26476    1
 21965 26477 26478    1
 21966 26477 26479    1
 21967 26480 26481    1
 21968 26480 26482    1
 21969 26483 26484    1
 21970 26483 26485    1
 21971 26486 26487    1
 21972 26486 26488    1
 21973 26489 26490    1
 21974 26489 26491    1
 21975 26492 26493    1
 21976 26492 26494    1
 21977 26495 26496    1
 21978 26495 26497    1
 21979 26498 26499    1
 21980 26498 26500    1
 21981 26501 26502    1
 21982 26501 26503    1
 21983 26504 26505    1
 21984 26504 26506    1
 21985 26507 26508    1
 21986 26507 26509    1
 21987 26510 26511    1
 21988 26510 26512    1
 21989 26513 26514    1
 21990 26513 26515    1
 21991 26516 26517    1
 21992 26516 26518    1
 21993 26519 26520    1
 21994 26519 26521    1
 21995 26522 26523    1
 21996 26522 26524    1
 21997 26525 26526    1
 21998 26525 26527    1
 21999 26528 26529    1
 22000 26528 26530    1
 22001 26531 26532    1
 22002 26531 26533    1
 22003 26534 26535    1
 22004 26534 26536    1
 22005 26537 26538    1
 22006 26537 26539    1
 22007 26540 26541    1
 22008 26540 26542    1
 22009 26543 26544    1
 22010 26543 26545    1
 22011 26546 26547    1
 22012 26546 26548    1
 22013 26549 26550    1
 22014 26549 26551    1
 22015 26552 26553    1
 22016 26552 26554    1
 22017 26555 26556    1
 22018 26555 26557    1
 22019 26558 26559    1
 22020 26558 26560    1
 22021 26561 26562    1
 22022 26561 26563    1
 22023 26564 26565    1
 22024 26564 26566    1
 22025 26567 26568    1
 22026 26567 26569    1
 22027 26570 26571    1
 22028 26570 26572    1
 22029 26573 26574    1
 22030 26573 26575    1
 22031 26576 26577    1
 22032 26576 26578    1
 22033 26579 26580    1
 22034 26579 26581    1
 22035 26582 26583    1
 22036 26582 26584    1
 22037 26585 26586    1
 22038 26585 26587    1
 22039 26588 26589    1
 22040 26588 26590    1
 22041 26591 26592    1
 22042 26591 26593    1
 22043 26594 26595    1
 22044 26594 26596    1
 22045 26597 26598    1
 22046 26597 26599    1
 22047 26600 26601    1
 22048 26600 26602    1
 22049 26603 26604    1
 22050 26603 26605    1
 22051 26606 26607    1
 22052 26606 26608    1
 22053 26609 26610    1
 22054 26609 26611    1
 22055 26612 26613    1
 22056 26612 26614    1
 22057 26615 26616    1
 22058 26615 26617    1
 22059 26618 26619    1
 22060 26618 26620    1
 22061 26621 26622    1
 22062 26621 26623    1
 22063 26624 26625    1
 22064 26624 26626    1
 22065 26627 26628    1
 22066 26627 26629    1
 22067 26630 26631    1
 22068 26630 26632    1
 22069 26633 26634    1
 22070 26633 26635    1
 22071 26636 26637    1
 22072 26636 26638    1
 22073 26639 26640    1
 22074 26639 26641    1
 22075 26642 26643    1
 22076 26642 26644    1
 22077 26645 26646    1
 22078 26645 26647    1
 22079 26648 26649    1
 22080 26648 26650    1
 22081 26651 26652    1
 22082 26651 26653    1
 22083 26654 26655    1
 22084 26654 26656    1
 22085 26657 26658    1
 22086 26657 26659    1
 22087 26660 26661    1
 22088 26660 26662    1
 22089 26663 26664    1
 22090 26663 26665    1
 22091 26666 26667    1
 22092 26666 26668    1
 22093 26669 26670    1
 22094 26669 26671    1
 22095 26672 26673    1
 22096 26672 26674    1
 22097 26675 26676    1
 22098 26675 26677    1
 22099 26678 26679    1
 22100 26678 26680    1
 22101 26681 26682    1
 22102 26681 26683    1
 22103 26684 26685    1
 22104 26684 26686    1
 22105 26687 26688    1
 22106 26687 26689    1
 22107 26690 26691    1
 22108 26690 26692    1
 22109 26693 26694    1
 22110 26693 26695    1
 22111 26696 26697    1
 22112 26696 26698    1
 22113 26699 26700    1
 22114 26699 26701    1
 22115 26702 26703    1
 22116 26702 26704    1
 22117 26705 26706    1
 22118 26705 26707    1
 22119 26708 26709    1
 22120 26708 26710    1
 22121 26711 26712    1
 22122 26711 26713    1
 22123 26714 26715    1
 22124 26714 26716    1
 22125 26717 26718    1
 22126 26717 26719    1
 22127 26720 26721    1
 22128 26720 26722    1
 22129 26723 26724    1
 22130 26723 26725    1
 22131 26726 26727    1
 22132 26726 26728    1
 22133 26729 26730    1
 22134 26729 26731    1
 22135 26732 26733    1
 22136 26732 26734    1
 22137 26735 26736    1
 22138 26735 26737    1
 22139 26738 26739    1
 22140 26738 26740    1
 22141 26741 26742    1
 22142 26741 26743    1
 22143 26744 26745    1
 22144 26744 26746    1
 22145 26747 26748    1
 22146 26747 26749    1
 22147 26750 26751    1
 22148 26750 26752    1
 22149 26753 26754    1
 22150 26753 26755    1
 22151 26756 26757    1
 22152 26756 26758    1
 22153 26759 26760    1
 22154 26759 26761    1
 22155 26762 26763    1
 22156 26762 26764    1
 22157 26765 26766    1
 22158 26765 26767    1
 22159 26768 26769    1
 22160 26768 26770    1
 22161 26771 26772    1
 22162 26771 26773    1
 22163 26774 26775    1
 22164 26774 26776    1
 22165 26777 26778    1
 22166 26777 26779    1
 22167 26780 26781    1
 22168 26780 26782    1
 22169 26783 26784    1
 22170 26783 26785    1
 22171 26786 26787    1
 22172 26786 26788    1
 22173 26789 26790    1
 22174 26789 26791    1
 22175 26792 26793    1
 22176 26792 26794    1
 22177 26795 26796    1
 22178 26795 26797    1
 22179 26798 26799    1
 22180 26798 26800    1
 22181 26801 26802    1
 22182 26801 26803    1
 22183 26804 26805    1
 22184 26804 26806    1
 22185 26807 26808    1
 22186 26807 26809    1
 22187 26810 26811    1
 22188 26810 26812    1
 22189 26813 26814    1
 22190 26813 26815    1
 22191 26816 26817    1
 22192 26816 26818    1
 22193 26819 26820    1
 22194 26819 26821    1
 22195 26822 26823    1
 22196 26822 26824    1
 22197 26825 26826    1
 22198 26825 26827    1
 22199 26828 26829    1
 22200 26828 26830    1
 22201 26831 26832    1
 22202 26831 26833    1
 22203 26834 26835    1
 22204 26834 26836    1
 22205 26837 26838    1
 22206 26837 26839    1
 22207 26840 26841    1
 22208 26840 26842    1
 22209 26843 26844    1
 22210 26843 26845    1
 22211 26846 26847    1
 22212 26846 26848    1
 22213 26849 26850    1
 22214 26849 26851    1
 22215 26852 26853    1
 22216 26852 26854    1
 22217 26855 26856    1
 22218 26855 26857    1
 22219 26858 26859    1
 22220 26858 26860    1
 22221 26861 26862    1
 22222 26861 26863    1
 22223 26864 26865    1
 22224 26864 26866    1
 22225 26867 26868    1
 22226 26867 26869    1
 22227 26870 26871    1
 22228 26870 26872    1
 22229 26873 26874    1
 22230 26873 26875    1
 22231 26876 26877    1
 22232 26876 26878    1
 22233 26879 26880    1
 22234 26879 26881    1
 22235 26882 26883    1
 22236 26882 26884    1
 22237 26885 26886    1
 22238 26885 26887    1
 22239 26888 26889    1
 22240 26888 26890    1
 22241 26891 26892    1
 22242 26891 26893    1
 22243 26894 26895    1
 22244 26894 26896    1
 22245 26897 26898    1
 22246 26897 26899    1
 22247 26900 26901    1
 22248 26900 26902    1
 22249 26903 26904    1
 22250 26903 26905    1
 22251 26906 26907    1
 22252 26906 26908    1
 22253 26909 26910    1
 22254 26909 26911    1
 22255 26912 26913    1
 22256 26912 26914    1
 22257 26915 26916    1
 22258 26915 26917    1
 22259 26918 26919    1
 22260 26918 26920    1
 22261 26921 26922    1
 22262 26921 26923    1
 22263 26924 26925    1
 22264 26924 26926    1
 22265 26927 26928    1
 22266 26927 26929    1
 22267 26930 26931    1
 22268 26930 26932    1
 22269 26933 26934    1
 22270 26933 26935    1
 22271 26936 26937    1
 22272 26936 26938    1
 22273 26939 26940    1
 22274 26939 26941    1
 22275 26942 26943    1
 22276 26942 26944    1
 22277 26945 26946    1
 22278 26945 26947    1
 22279 26948 26949    1
 22280 26948 26950    1
 22281 26951 26952    1
 22282 26951 26953    1
 22283 26954 26955    1
 22284 26954 26956    1
 22285 26957 26958    1
 22286 26957 26959    1
 22287 26960 26961    1
 22288 26960 26962    1
 22289 26963 26964    1
 22290 26963 26965    1
 22291 26966 26967    1
 22292 26966 26968    1
 22293 26969 26970    1
 22294 26969 26971    1
 22295 26972 26973    1
 22296 26972 26974    1
 22297 26975 26976    1
 22298 26975 26977    1
 22299 26978 26979    1
 22300 26978 26980    1
 22301 26981 26982    1
 22302 26981 26983    1
 22303 26984 26985    1
 22304 26984 26986    1
 22305 26987 26988    1
 22306 26987 26989    1
 22307 26990 26991    1
 22308 26990 26992    1
 22309 26993 26994    1
 22310 26993 26995    1
 22311 26996 26997    1
 22312 26996 26998    1
 22313 26999 27000    1
 22314 26999 27001    1
 22315 27002 27003    1
 22316 27002 27004    1
 22317 27005 27006    1
 22318 27005 27007    1
 22319 27008 27009    1
 22320 27008 27010    1
 22321 27011 27012    1
 22322 27011 27013    1
 22323 27014 27015    1
 22324 27014 27016    1
 22325 27017 27018    1
 22326 27017 27019    1
 22327 27020 27021    1
 22328 27020 27022    1
 22329 27023 27024    1
 22330 27023 27025    1
 22331 27026 27027    1
 22332 27026 27028    1
 22333 27029 27030    1
 22334 27029 27031    1
 22335 27032 27033    1
 22336 27032 27034    1
 22337 27035 27036    1
 22338 27035 27037    1
 22339 27038 27039    1
 22340 27038 27040    1
 22341 27041 27042    1
 22342 27041 27043    1
 22343 27044 27045    1
 22344 27044 27046    1
 22345 27047 27048    1
 22346 27047 27049    1
 22347 27050 27051    1
 22348 27050 27052    1
 22349 27053 27054    1
 22350 27053 27055    1
 22351 27056 27057    1
 22352 27056 27058    1
 22353 27059 27060    1
 22354 27059 27061    1
 22355 27062 27063    1
 22356 27062 27064    1
 22357 27065 27066    1
 22358 27065 27067    1
 22359 27068 27069    1
 22360 27068 27070    1
 22361 27071 27072    1
 22362 27071 27073    1
 22363 27074 27075    1
 22364 27074 27076    1
 22365 27077 27078    1
 22366 27077 27079    1
 22367 27080 27081    1
 22368 27080 27082    1
 22369 27083 27084    1
 22370 27083 27085    1
 22371 27086 27087    1
 22372 27086 27088    1
 22373 27089 27090    1
 22374 27089 27091    1
 22375 27092 27093    1
 22376 27092 27094    1
 22377 27095 27096    1
 22378 27095 27097    1
 22379 27098 27099    1
 22380 27098 27100    1
 22381 27101 27102    1
 22382 27101 27103    1
 22383 27104 27105    1
 22384 27104 27106    1
 22385 27107 27108    1
 22386 27107 27109    1
 22387 27110 27111    1
 22388 27110 27112    1
 22389 27113 27114    1
 22390 27113 27115    1
 22391 27116 27117    1
 22392 27116 27118    1
 22393 27119 27120    1
 22394 27119 27121    1
 22395 27122 27123    1
 22396 27122 27124    1
 22397 27125 27126    1
 22398 27125 27127    1
 22399 27128 27129    1
 22400 27128 27130    1
 22401 27131 27132    1
 22402 27131 27133    1
 22403 27134 27135    1
 22404 27134 27136    1
 22405 27137 27138    1
 22406 27137 27139    1
 22407 27140 27141    1
 22408 27140 27142    1
 22409 27143 27144    1
 22410 27143 27145    1
 22411 27146 27147    1
 22412 27146 27148    1
 22413 27149 27150    1
 22414 27149 27151    1
 22415 27152 27153    1
 22416 27152 27154    1
 22417 27155 27156    1
 22418 27155 27157    1
 22419 27158 27159    1
 22420 27158 27160    1
 22421 27161 27162    1
 22422 27161 27163    1
 22423 27164 27165    1
 22424 27164 27166    1
 22425 27167 27168    1
 22426 27167 27169    1
 22427 27170 27171    1
 22428 27170 27172    1
 22429 27173 27174    1
 22430 27173 27175    1
 22431 27176 27177    1
 22432 27176 27178    1
 22433 27179 27180    1
 22434 27179 27181    1
 22435 27182 27183    1
 22436 27182 27184    1
 22437 27185 27186    1
 22438 27185 27187    1
 22439 27188 27189    1
 22440 27188 27190    1
 22441 27191 27192    1
 22442 27191 27193    1
 22443 27194 27195    1
 22444 27194 27196    1
 22445 27197 27198    1
 22446 27197 27199    1
 22447 27200 27201    1
 22448 27200 27202    1
 22449 27203 27204    1
 22450 27203 27205    1
 22451 27206 27207    1
 22452 27206 27208    1
 22453 27209 27210    1
 22454 27209 27211    1
 22455 27212 27213    1
 22456 27212 27214    1
 22457 27215 27216    1
 22458 27215 27217    1
 22459 27218 27219    1
 22460 27218 27220    1
 22461 27221 27222    1
 22462 27221 27223    1
 22463 27224 27225    1
 22464 27224 27226    1
 22465 27227 27228    1
 22466 27227 27229    1
 22467 27230 27231    1
 22468 27230 27232    1
 22469 27233 27234    1
 22470 27233 27235    1
 22471 27236 27237    1
 22472 27236 27238    1
 22473 27239 27240    1
 22474 27239 27241    1
 22475 27242 27243    1
 22476 27242 27244    1
 22477 27245 27246    1
 22478 27245 27247    1
 22479 27248 27249    1
 22480 27248 27250    1
 22481 27251 27252    1
 22482 27251 27253    1
 22483 27254 27255    1
 22484 27254 27256    1
 22485 27257 27258    1
 22486 27257 27259    1
 22487 27260 27261    1
 22488 27260 27262    1
 22489 27263 27264    1
 22490 27263 27265    1
 22491 27266 27267    1
 22492 27266 27268    1
 22493 27269 27270    1
 22494 27269 27271    1
 22495 27272 27273    1
 22496 27272 27274    1
 22497 27275 27276    1
 22498 27275 27277    1
 22499 27278 27279    1
 22500 27278 27280    1
 22501 27281 27282    1
 22502 27281 27283    1
 22503 27284 27285    1
 22504 27284 27286    1
 22505 27287 27288    1
 22506 27287 27289    1
 22507 27290 27291    1
 22508 27290 27292    1
 22509 27293 27294    1
 22510 27293 27295    1
 22511 27296 27297    1
 22512 27296 27298    1
 22513 27299 27300    1
 22514 27299 27301    1
 22515 27302 27303    1
 22516 27302 27304    1
 22517 27305 27306    1
 22518 27305 27307    1
 22519 27308 27309    1
 22520 27308 27310    1
 22521 27311 27312    1
 22522 27311 27313    1
 22523 27314 27315    1
 22524 27314 27316    1
 22525 27317 27318    1
 22526 27317 27319    1
 22527 27320 27321    1
 22528 27320 27322    1
 22529 27323 27324    1
 22530 27323 27325    1
 22531 27326 27327    1
 22532 27326 27328    1
 22533 27329 27330    1
 22534 27329 27331    1
 22535 27332 27333    1
 22536 27332 27334    1
 22537 27335 27336    1
 22538 27335 27337    1
 22539 27338 27339    1
 22540 27338 27340    1
 22541 27341 27342    1
 22542 27341 27343    1
 22543 27344 27345    1
 22544 27344 27346    1
 22545 27347 27348    1
 22546 27347 27349    1
 22547 27350 27351    1
 22548 27350 27352    1
 22549 27353 27354    1
 22550 27353 27355    1
 22551 27356 27357    1
 22552 27356 27358    1
 22553 27359 27360    1
 22554 27359 27361    1
 22555 27362 27363    1
 22556 27362 27364    1
 22557 27365 27366    1
 22558 27365 27367    1
 22559 27368 27369    1
 22560 27368 27370    1
 22561 27371 27372    1
 22562 27371 27373    1
 22563 27374 27375    1
 22564 27374 27376    1
 22565 27377 27378    1
 22566 27377 27379    1
 22567 27380 27381    1
 22568 27380 27382    1
 22569 27383 27384    1
 22570 27383 27385    1
 22571 27386 27387    1
 22572 27386 27388    1
 22573 27389 27390    1
 22574 27389 27391    1
 22575 27392 27393    1
 22576 27392 27394    1
 22577 27395 27396    1
 22578 27395 27397    1
 22579 27398 27399    1
 22580 27398 27400    1
 22581 27401 27402    1
 22582 27401 27403    1
 22583 27404 27405    1
 22584 27404 27406    1
 22585 27407 27408    1
 22586 27407 27409    1
 22587 27410 27411    1
 22588 27410 27412    1
 22589 27413 27414    1
 22590 27413 27415    1
 22591 27416 27417    1
 22592 27416 27418    1
 22593 27419 27420    1
 22594 27419 27421    1
 22595 27422 27423    1
 22596 27422 27424    1
 22597 27425 27426    1
 22598 27425 27427    1
 22599 27428 27429    1
 22600 27428 27430    1
 22601 27431 27432    1
 22602 27431 27433    1
 22603 27434 27435    1
 22604 27434 27436    1
 22605 27437 27438    1
 22606 27437 27439    1
 22607 27440 27441    1
 22608 27440 27442    1
 22609 27443 27444    1
 22610 27443 27445    1
 22611 27446 27447    1
 22612 27446 27448    1
 22613 27449 27450    1
 22614 27449 27451    1
 22615 27452 27453    1
 22616 27452 27454    1
 22617 27455 27456    1
 22618 27455 27457    1
 22619 27458 27459    1
 22620 27458 27460    1
 22621 27461 27462    1
 22622 27461 27463    1
 22623 27464 27465    1
 22624 27464 27466    1
 22625 27467 27468    1
 22626 27467 27469    1
 22627 27470 27471    1
 22628 27470 27472    1
 22629 27473 27474    1
 22630 27473 27475    1
 22631 27476 27477    1
 22632 27476 27478    1
 22633 27479 27480    1
 22634 27479 27481    1
 22635 27482 27483    1
 22636 27482 27484    1
 22637 27485 27486    1
 22638 27485 27487    1
 22639 27488 27489    1
 22640 27488 27490    1
 22641 27491 27492    1
 22642 27491 27493    1
 22643 27494 27495    1
 22644 27494 27496    1
 22645 27497 27498    1
 22646 27497 27499    1
 22647 27500 27501    1
 22648 27500 27502    1
 22649 27503 27504    1
 22650 27503 27505    1
 22651 27506 27507    1
 22652 27506 27508    1
 22653 27509 27510    1
 22654 27509 27511    1
 22655 27512 27513    1
 22656 27512 27514    1
 22657 27515 27516    1
 22658 27515 27517    1
 22659 27518 27519    1
 22660 27518 27520    1
 22661 27521 27522    1
 22662 27521 27523    1
 22663 27524 27525    1
 22664 27524 27526    1
 22665 27527 27528    1
 22666 27527 27529    1
 22667 27530 27531    1
 22668 27530 27532    1
 22669 27533 27534    1
 22670 27533 27535    1
 22671 27536 27537    1
 22672 27536 27538    1
 22673 27539 27540    1
 22674 27539 27541    1
 22675 27542 27543    1
 22676 27542 27544    1
 22677 27545 27546    1
 22678 27545 27547    1
 22679 27548 27549    1
 22680 27548 27550    1
 22681 27551 27552    1
 22682 27551 27553    1
 22683 27554 27555    1
 22684 27554 27556    1
 22685 27557 27558    1
 22686 27557 27559    1
 22687 27560 27561    1
 22688 27560 27562    1
 22689 27563 27564    1
 22690 27563 27565    1
 22691 27566 27567    1
 22692 27566 27568    1
 22693 27569 27570    1
 22694 27569 27571    1
 22695 27572 27573    1
 22696 27572 27574    1
 22697 27575 27576    1
 22698 27575 27577    1
 22699 27578 27579    1
 22700 27578 27580    1
 22701 27581 27582    1
 22702 27581 27583    1
 22703 27584 27585    1
 22704 27584 27586    1
 22705 27587 27588    1
 22706 27587 27589    1
 22707 27590 27591    1
 22708 27590 27592    1
 22709 27593 27594    1
 22710 27593 27595    1
 22711 27596 27597    1
 22712 27596 27598    1
 22713 27599 27600    1
 22714 27599 27601    1
 22715 27602 27603    1
 22716 27602 27604    1
 22717 27605 27606    1
 22718 27605 27607    1
 22719 27608 27609    1
 22720 27608 27610    1
 22721 27611 27612    1
 22722 27611 27613    1
 22723 27614 27615    1
 22724 27614 27616    1
 22725 27617 27618    1
 22726 27617 27619    1
 22727 27620 27621    1
 22728 27620 27622    1
 22729 27623 27624    1
 22730 27623 27625    1
 22731 27626 27627    1
 22732 27626 27628    1
 22733 27629 27630    1
 22734 27629 27631    1
 22735 27632 27633    1
 22736 27632 27634    1
 22737 27635 27636    1
 22738 27635 27637    1
 22739 27638 27639    1
 22740 27638 27640    1
 22741 27641 27642    1
 22742 27641 27643    1
 22743 27644 27645    1
 22744 27644 27646    1
 22745 27647 27648    1
 22746 27647 27649    1
 22747 27650 27651    1
 22748 27650 27652    1
 22749 27653 27654    1
 22750 27653 27655    1
 22751 27656 27657    1
 22752 27656 27658    1
 22753 27659 27660    1
 22754 27659 27661    1
 22755 27662 27663    1
 22756 27662 27664    1
 22757 27665 27666    1
 22758 27665 27667    1
 22759 27668 27669    1
 22760 27668 27670    1
 22761 27671 27672    1
 22762 27671 27673    1
 22763 27674 27675    1
 22764 27674 27676    1
 22765 27677 27678    1
 22766 27677 27679    1
 22767 27680 27681    1
 22768 27680 27682    1
 22769 27683 27684    1
 22770 27683 27685    1
 22771 27686 27687    1
 22772 27686 27688    1
 22773 27689 27690    1
 22774 27689 27691    1
 22775 27692 27693    1
 22776 27692 27694    1
 22777 27695 27696    1
 22778 27695 27697    1
 22779 27698 27699    1
 22780 27698 27700    1
 22781 27701 27702    1
 22782 27701 27703    1
 22783 27704 27705    1
 22784 27704 27706    1
 22785 27707 27708    1
 22786 27707 27709    1
 22787 27710 27711    1
 22788 27710 27712    1
 22789 27713 27714    1
 22790 27713 27715    1
 22791 27716 27717    1
 22792 27716 27718    1
 22793 27719 27720    1
 22794 27719 27721    1
 22795 27722 27723    1
 22796 27722 27724    1
 22797 27725 27726    1
 22798 27725 27727    1
 22799 27728 27729    1
 22800 27728 27730    1
 22801 27731 27732    1
 22802 27731 27733    1
 22803 27734 27735    1
 22804 27734 27736    1
 22805 27737 27738    1
 22806 27737 27739    1
 22807 27740 27741    1
 22808 27740 27742    1
 22809 27743 27744    1
 22810 27743 27745    1
 22811 27746 27747    1
 22812 27746 27748    1
 22813 27749 27750    1
 22814 27749 27751    1
 22815 27752 27753    1
 22816 27752 27754    1
 22817 27755 27756    1
 22818 27755 27757    1
 22819 27758 27759    1
 22820 27758 27760    1
 22821 27761 27762    1
 22822 27761 27763    1
 22823 27764 27765    1
 22824 27764 27766    1
 22825 27767 27768    1
 22826 27767 27769    1
 22827 27770 27771    1
 22828 27770 27772    1
 22829 27773 27774    1
 22830 27773 27775    1
 22831 27776 27777    1
 22832 27776 27778    1
 22833 27779 27780    1
 22834 27779 27781    1
 22835 27782 27783    1
 22836 27782 27784    1
 22837 27785 27786    1
 22838 27785 27787    1
 22839 27788 27789    1
 22840 27788 27790    1
 22841 27791 27792    1
 22842 27791 27793    1
 22843 27794 27795    1
 22844 27794 27796    1
 22845 27797 27798    1
 22846 27797 27799    1
 22847 27800 27801    1
 22848 27800 27802    1
 22849 27803 27804    1
 22850 27803 27805    1
 22851 27806 27807    1
 22852 27806 27808    1
 22853 27809 27810    1
 22854 27809 27811    1
 22855 27812 27813    1
 22856 27812 27814    1
 22857 27815 27816    1
 22858 27815 27817    1
 22859 27818 27819    1
 22860 27818 27820    1
 22861 27821 27822    1
 22862 27821 27823    1
 22863 27824 27825    1
 22864 27824 27826    1
 22865 27827 27828    1
 22866 27827 27829    1
 22867 27830 27831    1
 22868 27830 27832    1
 22869 27833 27834    1
 22870 27833 27835    1
 22871 27836 27837    1
 22872 27836 27838    1
 22873 27839 27840    1
 22874 27839 27841    1
 22875 27842 27843    1
 22876 27842 27844    1
 22877 27845 27846    1
 22878 27845 27847    1
 22879 27848 27849    1
 22880 27848 27850    1
 22881 27851 27852    1
 22882 27851 27853    1
 22883 27854 27855    1
 22884 27854 27856    1
 22885 27857 27858    1
 22886 27857 27859    1
 22887 27860 27861    1
 22888 27860 27862    1
 22889 27863 27864    1
 22890 27863 27865    1
 22891 27866 27867    1
 22892 27866 27868    1
 22893 27869 27870    1
 22894 27869 27871    1
 22895 27872 27873    1
 22896 27872 27874    1
 22897 27875 27876    1
 22898 27875 27877    1
 22899 27878 27879    1
 22900 27878 27880    1
 22901 27881 27882    1
 22902 27881 27883    1
 22903 27884 27885    1
 22904 27884 27886    1
 22905 27887 27888    1
 22906 27887 27889    1
 22907 27890 27891    1
 22908 27890 27892    1
 22909 27893 27894    1
 22910 27893 27895    1
 22911 27896 27897    1
 22912 27896 27898    1
 22913 27899 27900    1
 22914 27899 27901    1
 22915 27902 27903    1
 22916 27902 27904    1
 22917 27905 27906    1
 22918 27905 27907    1
 22919 27908 27909    1
 22920 27908 27910    1
 22921 27911 27912    1
 22922 27911 27913    1
 22923 27914 27915    1
 22924 27914 27916    1
 22925 27917 27918    1
 22926 27917 27919    1
 22927 27920 27921    1
 22928 27920 27922    1
 22929 27923 27924    1
 22930 27923 27925    1
 22931 27926 27927    1
 22932 27926 27928    1
 22933 27929 27930    1
 22934 27929 27931    1
 22935 27932 27933    1
 22936 27932 27934    1
 22937 27935 27936    1
 22938 27935 27937    1
 22939 27938 27939    1
 22940 27938 27940    1
 22941 27941 27942    1
 22942 27941 27943    1
 22943 27944 27945    1
 22944 27944 27946    1
 22945 27947 27948    1
 22946 27947 27949    1
 22947 27950 27951    1
 22948 27950 27952    1
 22949 27953 27954    1
 22950 27953 27955    1
 22951 27956 27957    1
 22952 27956 27958    1
 22953 27959 27960    1
 22954 27959 27961    1
 22955 27962 27963    1
 22956 27962 27964    1
 22957 27965 27966    1
 22958 27965 27967    1
 22959 27968 27969    1
 22960 27968 27970    1
 22961 27971 27972    1
 22962 27971 27973    1
 22963 27974 27975    1
 22964 27974 27976    1
 22965 27977 27978    1
 22966 27977 27979    1
 22967 27980 27981    1
 22968 27980 27982    1
 22969 27983 27984    1
 22970 27983 27985    1
 22971 27986 27987    1
 22972 27986 27988    1
 22973 27989 27990    1
 22974 27989 27991    1
 22975 27992 27993    1
 22976 27992 27994    1
 22977 27995 27996    1
 22978 27995 27997    1
 22979 27998 27999    1
 22980 27998 28000    1
 22981 28001 28002    1
 22982 28001 28003    1
 22983 28004 28005    1
 22984 28004 28006    1
 22985 28007 28008    1
 22986 28007 28009    1
 22987 28010 28011    1
 22988 28010 28012    1
 22989 28013 28014    1
 22990 28013 28015    1
 22991 28016 28017    1
 22992 28016 28018    1
 22993 28019 28020    1
 22994 28019 28021    1
 22995 28022 28023    1
 22996 28022 28024    1
 22997 28025 28026    1
 22998 28025 28027    1
 22999 28028 28029    1
 23000 28028 28030    1
 23001 28031 28032    1
 23002 28031 28033    1
 23003 28034 28035    1
 23004 28034 28036    1
 23005 28037 28038    1
 23006 28037 28039    1
 23007 28040 28041    1
 23008 28040 28042    1
 23009 28043 28044    1
 23010 28043 28045    1
 23011 28046 28047    1
 23012 28046 28048    1
 23013 28049 28050    1
 23014 28049 28051    1
 23015 28052 28053    1
 23016 28052 28054    1
 23017 28055 28056    1
 23018 28055 28057    1
 23019 28058 28059    1
 23020 28058 28060    1
 23021 28061 28062    1
 23022 28061 28063    1
 23023 28064 28065    1
 23024 28064 28066    1
 23025 28067 28068    1
 23026 28067 28069    1
 23027 28070 28071    1
 23028 28070 28072    1
 23029 28073 28074    1
 23030 28073 28075    1
 23031 28076 28077    1
 23032 28076 28078    1
 23033 28079 28080    1
 23034 28079 28081    1
 23035 28082 28083    1
 23036 28082 28084    1
 23037 28085 28086    1
 23038 28085 28087    1
 23039 28088 28089    1
 23040 28088 28090    1
 23041 28091 28092    1
 23042 28091 28093    1
 23043 28094 28095    1
 23044 28094 28096    1
 23045 28097 28098    1
 23046 28097 28099    1
 23047 28100 28101    1
 23048 28100 28102    1
 23049 28103 28104    1
 23050 28103 28105    1
 23051 28106 28107    1
 23052 28106 28108    1
 23053 28109 28110    1
 23054 28109 28111    1
 23055 28112 28113    1
 23056 28112 28114    1
 23057 28115 28116    1
 23058 28115 28117    1
 23059 28118 28119    1
 23060 28118 28120    1
 23061 28121 28122    1
 23062 28121 28123    1
 23063 28124 28125    1
 23064 28124 28126    1
 23065 28127 28128    1
 23066 28127 28129    1
 23067 28130 28131    1
 23068 28130 28132    1
 23069 28133 28134    1
 23070 28133 28135    1
 23071 28136 28137    1
 23072 28136 28138    1
 23073 28139 28140    1
 23074 28139 28141    1
 23075 28142 28143    1
 23076 28142 28144    1
 23077 28145 28146    1
 23078 28145 28147    1
 23079 28148 28149    1
 23080 28148 28150    1
 23081 28151 28152    1
 23082 28151 28153    1
 23083 28154 28155    1
 23084 28154 28156    1
 23085 28157 28158    1
 23086 28157 28159    1
 23087 28160 28161    1
 23088 28160 28162    1
 23089 28163 28164    1
 23090 28163 28165    1
 23091 28166 28167    1
 23092 28166 28168    1
 23093 28169 28170    1
 23094 28169 28171    1
 23095 28172 28173    1
 23096 28172 28174    1
 23097 28175 28176    1
 23098 28175 28177    1
 23099 28178 28179    1
 23100 28178 28180    1
 23101 28181 28182    1
 23102 28181 28183    1
 23103 28184 28185    1
 23104 28184 28186    1
 23105 28187 28188    1
 23106 28187 28189    1
 23107 28190 28191    1
 23108 28190 28192    1
 23109 28193 28194    1
 23110 28193 28195    1
 23111 28196 28197    1
 23112 28196 28198    1
 23113 28199 28200    1
 23114 28199 28201    1
 23115 28202 28203    1
 23116 28202 28204    1
 23117 28205 28206    1
 23118 28205 28207    1
 23119 28208 28209    1
 23120 28208 28210    1
 23121 28211 28212    1
 23122 28211 28213    1
 23123 28214 28215    1
 23124 28214 28216    1
 23125 28217 28218    1
 23126 28217 28219    1
 23127 28220 28221    1
 23128 28220 28222    1
 23129 28223 28224    1
 23130 28223 28225    1
 23131 28226 28227    1
 23132 28226 28228    1
 23133 28229 28230    1
 23134 28229 28231    1
 23135 28232 28233    1
 23136 28232 28234    1
 23137 28235 28236    1
 23138 28235 28237    1
 23139 28238 28239    1
 23140 28238 28240    1
 23141 28241 28242    1
 23142 28241 28243    1
 23143 28244 28245    1
 23144 28244 28246    1
 23145 28247 28248    1
 23146 28247 28249    1
 23147 28250 28251    1
 23148 28250 28252    1
 23149 28253 28254    1
 23150 28253 28255    1
 23151 28256 28257    1
 23152 28256 28258    1
 23153 28259 28260    1
 23154 28259 28261    1
 23155 28262 28263    1
 23156 28262 28264    1
 23157 28265 28266    1
 23158 28265 28267    1
 23159 28268 28269    1
 23160 28268 28270    1
 23161 28271 28272    1
 23162 28271 28273    1
 23163 28274 28275    1
 23164 28274 28276    1
 23165 28277 28278    1
 23166 28277 28279    1
 23167 28280 28281    1
 23168 28280 28282    1
 23169 28283 28284    1
 23170 28283 28285    1
 23171 28286 28287    1
 23172 28286 28288    1
 23173 28289 28290    1
 23174 28289 28291    1
 23175 28292 28293    1
 23176 28292 28294    1
 23177 28295 28296    1
 23178 28295 28297    1
 23179 28298 28299    1
 23180 28298 28300    1
 23181 28301 28302    1
 23182 28301 28303    1
 23183 28304 28305    1
 23184 28304 28306    1
 23185 28307 28308    1
 23186 28307 28309    1
 23187 28310 28311    1
 23188 28310 28312    1
 23189 28313 28314    1
 23190 28313 28315    1
 23191 28316 28317    1
 23192 28316 28318    1
 23193 28319 28320    1
 23194 28319 28321    1
 23195 28322 28323    1
 23196 28322 28324    1
 23197 28325 28326    1
 23198 28325 28327    1
 23199 28328 28329    1
 23200 28328 28330    1
 23201 28331 28332    1
 23202 28331 28333    1
 23203 28334 28335    1
 23204 28334 28336    1
 23205 28337 28338    1
 23206 28337 28339    1
 23207 28340 28341    1
 23208 28340 28342    1
 23209 28343 28344    1
 23210 28343 28345    1
 23211 28346 28347    1
 23212 28346 28348    1
 23213 28349 28350    1
 23214 28349 28351    1
 23215 28352 28353    1
 23216 28352 28354    1
 23217 28355 28356    1
 23218 28355 28357    1
 23219 28358 28359    1
 23220 28358 28360    1
 23221 28361 28362    1
 23222 28361 28363    1
 23223 28364 28365    1
 23224 28364 28366    1
 23225 28367 28368    1
 23226 28367 28369    1
 23227 28370 28371    1
 23228 28370 28372    1
 23229 28373 28374    1
 23230 28373 28375    1
 23231 28376 28377    1
 23232 28376 28378    1
 23233 28379 28380    1
 23234 28379 28381    1
 23235 28382 28383    1
 23236 28382 28384    1
 23237 28385 28386    1
 23238 28385 28387    1
 23239 28388 28389    1
 23240 28388 28390    1
 23241 28391 28392    1
 23242 28391 28393    1
 23243 28394 28395    1
 23244 28394 28396    1
 23245 28397 28398    1
 23246 28397 28399    1
 23247 28400 28401    1
 23248 28400 28402    1
 23249 28403 28404    1
 23250 28403 28405    1
 23251 28406 28407    1
 23252 28406 28408    1
 23253 28409 28410    1
 23254 28409 28411    1
 23255 28412 28413    1
 23256 28412 28414    1
 23257 28415 28416    1
 23258 28415 28417    1
 23259 28418 28419    1
 23260 28418 28420    1
 23261 28421 28422    1
 23262 28421 28423    1
 23263 28424 28425    1
 23264 28424 28426    1
 23265 28427 28428    1
 23266 28427 28429    1
 23267 28430 28431    1
 23268 28430 28432    1
 23269 28433 28434    1
 23270 28433 28435    1
 23271 28436 28437    1
 23272 28436 28438    1
 23273 28439 28440    1
 23274 28439 28441    1
 23275 28442 28443    1
 23276 28442 28444    1
 23277 28445 28446    1
 23278 28445 28447    1
 23279 28448 28449    1
 23280 28448 28450    1
 23281 28451 28452    1
 23282 28451 28453    1
 23283 28454 28455    1
 23284 28454 28456    1
 23285 28457 28458    1
 23286 28457 28459    1
 23287 28460 28461    1
 23288 28460 28462    1
 23289 28463 28464    1
 23290 28463 28465    1
 23291 28466 28467    1
 23292 28466 28468    1
 23293 28469 28470    1
 23294 28469 28471    1
 23295 28472 28473    1
 23296 28472 28474    1
 23297 28475 28476    1
 23298 28475 28477    1
 23299 28478 28479    1
 23300 28478 28480    1
 23301 28481 28482    1
 23302 28481 28483    1
 23303 28484 28485    1
 23304 28484 28486    1
 23305 28487 28488    1
 23306 28487 28489    1
 23307 28490 28491    1
 23308 28490 28492    1
 23309 28493 28494    1
 23310 28493 28495    1
 23311 28496 28497    1
 23312 28496 28498    1
 23313 28499 28500    1
 23314 28499 28501    1
 23315 28502 28503    1
 23316 28502 28504    1
 23317 28505 28506    1
 23318 28505 28507    1
 23319 28508 28509    1
 23320 28508 28510    1
 23321 28511 28512    1
 23322 28511 28513    1
 23323 28514 28515    1
 23324 28514 28516    1
 23325 28517 28518    1
 23326 28517 28519    1
 23327 28520 28521    1
 23328 28520 28522    1
 23329 28523 28524    1
 23330 28523 28525    1
 23331 28526 28527    1
 23332 28526 28528    1
 23333 28529 28530    1
 23334 28529 28531    1
 23335 28532 28533    1
 23336 28532 28534    1
 23337 28535 28536    1
 23338 28535 28537    1
 23339 28538 28539    1
 23340 28538 28540    1
 23341 28541 28542    1
 23342 28541 28543    1
 23343 28544 28545    1
 23344 28544 28546    1
 23345 28547 28548    1
 23346 28547 28549    1
 23347 28550 28551    1
 23348 28550 28552    1
 23349 28553 28554    1
 23350 28553 28555    1
 23351 28556 28557    1
 23352 28556 28558    1
 23353 28559 28560    1
 23354 28559 28561    1
 23355 28562 28563    1
 23356 28562 28564    1
 23357 28565 28566    1
 23358 28565 28567    1
 23359 28568 28569    1
 23360 28568 28570    1
 23361 28571 28572    1
 23362 28571 28573    1
 23363 28574 28575    1
 23364 28574 28576    1
 23365 28577 28578    1
 23366 28577 28579    1
 23367 28580 28581    1
 23368 28580 28582    1
 23369 28583 28584    1
 23370 28583 28585    1
 23371 28586 28587    1
 23372 28586 28588    1
 23373 28589 28590    1
 23374 28589 28591    1
 23375 28592 28593    1
 23376 28592 28594    1
 23377 28595 28596    1
 23378 28595 28597    1
 23379 28598 28599    1
 23380 28598 28600    1
 23381 28601 28602    1
 23382 28601 28603    1
 23383 28604 28605    1
 23384 28604 28606    1
 23385 28607 28608    1
 23386 28607 28609    1
 23387 28610 28611    1
 23388 28610 28612    1
 23389 28613 28614    1
 23390 28613 28615    1
 23391 28616 28617    1
 23392 28616 28618    1
 23393 28619 28620    1
 23394 28619 28621    1
 23395 28622 28623    1
 23396 28622 28624    1
 23397 28625 28626    1
 23398 28625 28627    1
 23399 28628 28629    1
 23400 28628 28630    1
 23401 28631 28632    1
 23402 28631 28633    1
 23403 28634 28635    1
 23404 28634 28636    1
 23405 28637 28638    1
 23406 28637 28639    1
 23407 28640 28641    1
 23408 28640 28642    1
 23409 28643 28644    1
 23410 28643 28645    1
 23411 28646 28647    1
 23412 28646 28648    1
 23413 28649 28650    1
 23414 28649 28651    1
 23415 28652 28653    1
 23416 28652 28654    1
 23417 28655 28656    1
 23418 28655 28657    1
 23419 28658 28659    1
 23420 28658 28660    1
 23421 28661 28662    1
 23422 28661 28663    1
 23423 28664 28665    1
 23424 28664 28666    1
 23425 28667 28668    1
 23426 28667 28669    1
 23427 28670 28671    1
 23428 28670 28672    1
 23429 28673 28674    1
 23430 28673 28675    1
 23431 28676 28677    1
 23432 28676 28678    1
 23433 28679 28680    1
 23434 28679 28681    1
 23435 28682 28683    1
 23436 28682 28684    1
 23437 28685 28686    1
 23438 28685 28687    1
 23439 28688 28689    1
 23440 28688 28690    1
 23441 28691 28692    1
 23442 28691 28693    1
 23443 28694 28695    1
 23444 28694 28696    1
 23445 28697 28698    1
 23446 28697 28699    1
 23447 28700 28701    1
 23448 28700 28702    1
 23449 28703 28704    1
 23450 28703 28705    1
 23451 28706 28707    1
 23452 28706 28708    1
 23453 28709 28710    1
 23454 28709 28711    1
 23455 28712 28713    1
 23456 28712 28714    1
 23457 28715 28716    1
 23458 28715 28717    1
 23459 28718 28719    1
 23460 28718 28720    1
 23461 28721 28722    1
 23462 28721 28723    1
 23463 28724 28725    1
 23464 28724 28726    1
 23465 28727 28728    1
 23466 28727 28729    1
 23467 28730 28731    1
 23468 28730 28732    1
 23469 28733 28734    1
 23470 28733 28735    1
 23471 28736 28737    1
 23472 28736 28738    1
 23473 28739 28740    1
 23474 28739 28741    1
 23475 28742 28743    1
 23476 28742 28744    1
 23477 28745 28746    1
 23478 28745 28747    1
 23479 28748 28749    1
 23480 28748 28750    1
 23481 28751 28752    1
 23482 28751 28753    1
 23483 28754 28755    1
 23484 28754 28756    1
 23485 28757 28758    1
 23486 28757 28759    1
 23487 28760 28761    1
 23488 28760 28762    1
 23489 28763 28764    1
 23490 28763 28765    1
 23491 28766 28767    1
 23492 28766 28768    1
 23493 28769 28770    1
 23494 28769 28771    1
 23495 28772 28773    1
 23496 28772 28774    1
 23497 28775 28776    1
 23498 28775 28777    1
 23499 28778 28779    1
 23500 28778 28780    1
 23501 28781 28782    1
 23502 28781 28783    1
 23503 28784 28785    1
 23504 28784 28786    1
 23505 28787 28788    1
 23506 28787 28789    1
 23507 28790 28791    1
 23508 28790 28792    1
 23509 28793 28794    1
 23510 28793 28795    1
 23511 28796 28797    1
 23512 28796 28798    1
 23513 28799 28800    1
 23514 28799 28801    1
 23515 28802 28803    1
 23516 28802 28804    1
 23517 28805 28806    1
 23518 28805 28807    1
 23519 28808 28809    1
 23520 28808 28810    1
 23521 28811 28812    1
 23522 28811 28813    1
 23523 28814 28815    1
 23524 28814 28816    1
 23525 28817 28818    1
 23526 28817 28819    1
 23527 28820 28821    1
 23528 28820 28822    1
 23529 28823 28824    1
 23530 28823 28825    1
 23531 28826 28827    1
 23532 28826 28828    1
 23533 28829 28830    1
 23534 28829 28831    1
 23535 28832 28833    1
 23536 28832 28834    1
 23537 28835 28836    1
 23538 28835 28837    1
 23539 28838 28839    1
 23540 28838 28840    1
 23541 28841 28842    1
 23542 28841 28843    1
 23543 28844 28845    1
 23544 28844 28846    1
 23545 28847 28848    1
 23546 28847 28849    1
 23547 28850 28851    1
 23548 28850 28852    1
 23549 28853 28854    1
 23550 28853 28855    1
 23551 28856 28857    1
 23552 28856 28858    1
 23553 28859 28860    1
 23554 28859 28861    1
 23555 28862 28863    1
 23556 28862 28864    1
 23557 28865 28866    1
 23558 28865 28867    1
 23559 28868 28869    1
 23560 28868 28870    1
 23561 28871 28872    1
 23562 28871 28873    1
 23563 28874 28875    1
 23564 28874 28876    1
 23565 28877 28878    1
 23566 28877 28879    1
 23567 28880 28881    1
 23568 28880 28882    1
 23569 28883 28884    1
 23570 28883 28885    1
 23571 28886 28887    1
 23572 28886 28888    1
 23573 28889 28890    1
 23574 28889 28891    1
 23575 28892 28893    1
 23576 28892 28894    1
 23577 28895 28896    1
 23578 28895 28897    1
 23579 28898 28899    1
 23580 28898 28900    1
 23581 28901 28902    1
 23582 28901 28903    1
 23583 28904 28905    1
 23584 28904 28906    1
 23585 28907 28908    1
 23586 28907 28909    1
 23587 28910 28911    1
 23588 28910 28912    1
 23589 28913 28914    1
 23590 28913 28915    1
 23591 28916 28917    1
 23592 28916 28918    1
 23593 28919 28920    1
 23594 28919 28921    1
 23595 28922 28923    1
 23596 28922 28924    1
 23597 28925 28926    1
 23598 28925 28927    1
 23599 28928 28929    1
 23600 28928 28930    1
 23601 28931 28932    1
 23602 28931 28933    1
 23603 28934 28935    1
 23604 28934 28936    1
 23605 28937 28938    1
 23606 28937 28939    1
 23607 28940 28941    1
 23608 28940 28942    1
 23609 28943 28944    1
 23610 28943 28945    1
 23611 28946 28947    1
 23612 28946 28948    1
 23613 28949 28950    1
 23614 28949 28951    1
 23615 28952 28953    1
 23616 28952 28954    1
 23617 28955 28956    1
 23618 28955 28957    1
 23619 28958 28959    1
 23620 28958 28960    1
 23621 28961 28962    1
 23622 28961 28963    1
 23623 28964 28965    1
 23624 28964 28966    1
 23625 28967 28968    1
 23626 28967 28969    1
 23627 28970 28971    1
 23628 28970 28972    1
 23629 28973 28974    1
 23630 28973 28975    1
 23631 28976 28977    1
 23632 28976 28978    1
 23633 28979 28980    1
 23634 28979 28981    1
 23635 28982 28983    1
 23636 28982 28984    1
 23637 28985 28986    1
 23638 28985 28987    1
 23639 28988 28989    1
 23640 28988 28990    1
 23641 28991 28992    1
 23642 28991 28993    1
 23643 28994 28995    1
 23644 28994 28996    1
 23645 28997 28998    1
 23646 28997 28999    1
 23647 29000 29001    1
 23648 29000 29002    1
 23649 29003 29004    1
 23650 29003 29005    1
 23651 29006 29007    1
 23652 29006 29008    1
 23653 29009 29010    1
 23654 29009 29011    1
 23655 29012 29013    1
 23656 29012 29014    1
 23657 29015 29016    1
 23658 29015 29017    1
 23659 29018 29019    1
 23660 29018 29020    1
 23661 29021 29022    1
 23662 29021 29023    1
 23663 29024 29025    1
 23664 29024 29026    1
 23665 29027 29028    1
 23666 29027 29029    1
 23667 29030 29031    1
 23668 29030 29032    1
 23669 29033 29034    1
 23670 29033 29035    1
 23671 29036 29037    1
 23672 29036 29038    1
 23673 29039 29040    1
 23674 29039 29041    1
 23675 29042 29043    1
 23676 29042 29044    1
 23677 29045 29046    1
 23678 29045 29047    1
 23679 29048 29049    1
 23680 29048 29050    1
 23681 29051 29052    1
 23682 29051 29053    1
 23683 29054 29055    1
 23684 29054 29056    1
 23685 29057 29058    1
 23686 29057 29059    1
 23687 29060 29061    1
 23688 29060 29062    1
 23689 29063 29064    1
 23690 29063 29065    1
 23691 29066 29067    1
 23692 29066 29068    1
 23693 29069 29070    1
 23694 29069 29071    1
 23695 29072 29073    1
 23696 29072 29074    1
 23697 29075 29076    1
 23698 29075 29077    1
 23699 29078 29079    1
 23700 29078 29080    1
 23701 29081 29082    1
 23702 29081 29083    1
 23703 29084 29085    1
 23704 29084 29086    1
 23705 29087 29088    1
 23706 29087 29089    1
 23707 29090 29091    1
 23708 29090 29092    1
 23709 29093 29094    1
 23710 29093 29095    1
 23711 29096 29097    1
 23712 29096 29098    1
 23713 29099 29100    1
 23714 29099 29101    1
 23715 29102 29103    1
 23716 29102 29104    1
 23717 29105 29106    1
 23718 29105 29107    1
 23719 29108 29109    1
 23720 29108 29110    1
 23721 29111 29112    1
 23722 29111 29113    1
 23723 29114 29115    1
 23724 29114 29116    1
 23725 29117 29118    1
 23726 29117 29119    1
 23727 29120 29121    1
 23728 29120 29122    1
 23729 29123 29124    1
 23730 29123 29125    1
 23731 29126 29127    1
 23732 29126 29128    1
 23733 29129 29130    1
 23734 29129 29131    1
 23735 29132 29133    1
 23736 29132 29134    1
 23737 29135 29136    1
 23738 29135 29137    1
 23739 29138 29139    1
 23740 29138 29140    1
 23741 29141 29142    1
 23742 29141 29143    1
 23743 29144 29145    1
 23744 29144 29146    1
 23745 29147 29148    1
 23746 29147 29149    1
 23747 29150 29151    1
 23748 29150 29152    1
 23749 29153 29154    1
 23750 29153 29155    1
 23751 29156 29157    1
 23752 29156 29158    1
 23753 29159 29160    1
 23754 29159 29161    1
 23755 29162 29163    1
 23756 29162 29164    1
 23757 29165 29166    1
 23758 29165 29167    1
 23759 29168 29169    1
 23760 29168 29170    1
 23761 29171 29172    1
 23762 29171 29173    1
 23763 29174 29175    1
 23764 29174 29176    1
 23765 29177 29178    1
 23766 29177 29179    1
 23767 29180 29181    1
 23768 29180 29182    1
 23769 29183 29184    1
 23770 29183 29185    1
 23771 29186 29187    1
 23772 29186 29188    1
 23773 29189 29190    1
 23774 29189 29191    1
 23775 29192 29193    1
 23776 29192 29194    1
 23777 29195 29196    1
 23778 29195 29197    1
 23779 29198 29199    1
 23780 29198 29200    1
 23781 29201 29202    1
 23782 29201 29203    1
 23783 29204 29205    1
 23784 29204 29206    1
 23785 29207 29208    1
 23786 29207 29209    1
 23787 29210 29211    1
 23788 29210 29212    1
 23789 29213 29214    1
 23790 29213 29215    1
 23791 29216 29217    1
 23792 29216 29218    1
 23793 29219 29220    1
 23794 29219 29221    1
 23795 29222 29223    1
 23796 29222 29224    1
 23797 29225 29226    1
 23798 29225 29227    1
 23799 29228 29229    1
 23800 29228 29230    1
 23801 29231 29232    1
 23802 29231 29233    1
 23803 29234 29235    1
 23804 29234 29236    1
 23805 29237 29238    1
 23806 29237 29239    1
 23807 29240 29241    1
 23808 29240 29242    1
 23809 29243 29244    1
 23810 29243 29245    1
 23811 29246 29247    1
 23812 29246 29248    1
 23813 29249 29250    1
 23814 29249 29251    1
 23815 29252 29253    1
 23816 29252 29254    1
 23817 29255 29256    1
 23818 29255 29257    1
 23819 29258 29259    1
 23820 29258 29260    1
 23821 29261 29262    1
 23822 29261 29263    1
 23823 29264 29265    1
 23824 29264 29266    1
 23825 29267 29268    1
 23826 29267 29269    1
 23827 29270 29271    1
 23828 29270 29272    1
 23829 29273 29274    1
 23830 29273 29275    1
 23831 29276 29277    1
 23832 29276 29278    1
 23833 29279 29280    1
 23834 29279 29281    1
 23835 29282 29283    1
 23836 29282 29284    1
 23837 29285 29286    1
 23838 29285 29287    1
 23839 29288 29289    1
 23840 29288 29290    1
 23841 29291 29292    1
 23842 29291 29293    1
 23843 29294 29295    1
 23844 29294 29296    1
 23845 29297 29298    1
 23846 29297 29299    1
 23847 29300 29301    1
 23848 29300 29302    1
 23849 29303 29304    1
 23850 29303 29305    1
 23851 29306 29307    1
 23852 29306 29308    1
 23853 29309 29310    1
 23854 29309 29311    1
 23855 29312 29313    1
 23856 29312 29314    1
 23857 29315 29316    1
 23858 29315 29317    1
 23859 29318 29319    1
 23860 29318 29320    1
 23861 29321 29322    1
 23862 29321 29323    1
 23863 29324 29325    1
 23864 29324 29326    1
 23865 29327 29328    1
 23866 29327 29329    1
 23867 29330 29331    1
 23868 29330 29332    1
 23869 29333 29334    1
 23870 29333 29335    1
 23871 29336 29337    1
 23872 29336 29338    1
 23873 29339 29340    1
 23874 29339 29341    1
 23875 29342 29343    1
 23876 29342 29344    1
 23877 29345 29346    1
 23878 29345 29347    1
 23879 29348 29349    1
 23880 29348 29350    1
 23881 29351 29352    1
 23882 29351 29353    1
 23883 29354 29355    1
 23884 29354 29356    1
 23885 29357 29358    1
 23886 29357 29359    1
 23887 29360 29361    1
 23888 29360 29362    1
 23889 29363 29364    1
 23890 29363 29365    1
 23891 29366 29367    1
 23892 29366 29368    1
 23893 29369 29370    1
 23894 29369 29371    1
 23895 29372 29373    1
 23896 29372 29374    1
 23897 29375 29376    1
 23898 29375 29377    1
 23899 29378 29379    1
 23900 29378 29380    1
 23901 29381 29382    1
 23902 29381 29383    1
 23903 29384 29385    1
 23904 29384 29386    1
 23905 29387 29388    1
 23906 29387 29389    1
 23907 29390 29391    1
 23908 29390 29392    1
 23909 29393 29394    1
 23910 29393 29395    1
 23911 29396 29397    1
 23912 29396 29398    1
 23913 29399 29400    1
 23914 29399 29401    1
 23915 29402 29403    1
 23916 29402 29404    1
 23917 29405 29406    1
 23918 29405 29407    1
 23919 29408 29409    1
 23920 29408 29410    1
 23921 29411 29412    1
 23922 29411 29413    1
 23923 29414 29415    1
 23924 29414 29416    1
 23925 29417 29418    1
 23926 29417 29419    1
 23927 29420 29421    1
 23928 29420 29422    1
 23929 29423 29424    1
 23930 29423 29425    1
 23931 29426 29427    1
 23932 29426 29428    1
 23933 29429 29430    1
 23934 29429 29431    1
 23935 29432 29433    1
 23936 29432 29434    1
 23937 29435 29436    1
 23938 29435 29437    1
 23939 29438 29439    1
 23940 29438 29440    1
 23941 29441 29442    1
 23942 29441 29443    1
 23943 29444 29445    1
 23944 29444 29446    1
 23945 29447 29448    1
 23946 29447 29449    1
 23947 29450 29451    1
 23948 29450 29452    1
 23949 29453 29454    1
 23950 29453 29455    1
 23951 29456 29457    1
 23952 29456 29458    1
 23953 29459 29460    1
 23954 29459 29461    1
 23955 29462 29463    1
 23956 29462 29464    1
 23957 29465 29466    1
 23958 29465 29467    1
 23959 29468 29469    1
 23960 29468 29470    1
 23961 29471 29472    1
 23962 29471 29473    1
 23963 29474 29475    1
 23964 29474 29476    1
 23965 29477 29478    1
 23966 29477 29479    1
 23967 29480 29481    1
 23968 29480 29482    1
 23969 29483 29484    1
 23970 29483 29485    1
 23971 29486 29487    1
 23972 29486 29488    1
 23973 29489 29490    1
 23974 29489 29491    1
 23975 29492 29493    1
 23976 29492 29494    1
 23977 29495 29496    1
 23978 29495 29497    1
 23979 29498 29499    1
 23980 29498 29500    1
 23981 29501 29502    1
 23982 29501 29503    1
 23983 29504 29505    1
 23984 29504 29506    1
 23985 29507 29508    1
 23986 29507 29509    1
 23987 29510 29511    1
 23988 29510 29512    1
 23989 29513 29514    1
 23990 29513 29515    1
 23991 29516 29517    1
 23992 29516 29518    1
 23993 29519 29520    1
 23994 29519 29521    1
 23995 29522 29523    1
 23996 29522 29524    1
 23997 29525 29526    1
 23998 29525 29527    1
 23999 29528 29529    1
 24000 29528 29530    1
 24001 29531 29532    1
 24002 29531 29533    1
 24003 29534 29535    1
 24004 29534 29536    1
 24005 29537 29538    1
 24006 29537 29539    1
 24007 29540 29541    1
 24008 29540 29542    1
 24009 29543 29544    1
 24010 29543 29545    1
 24011 29546 29547    1
 24012 29546 29548    1
 24013 29549 29550    1
 24014 29549 29551    1
 24015 29552 29553    1
 24016 29552 29554    1
 24017 29555 29556    1
 24018 29555 29557    1
 24019 29558 29559    1
 24020 29558 29560    1
 24021 29561 29562    1
 24022 29561 29563    1
 24023 29564 29565    1
 24024 29564 29566    1
 24025 29567 29568    1
 24026 29567 29569    1
 24027 29570 29571    1
 24028 29570 29572    1
 24029 29573 29574    1
 24030 29573 29575    1
 24031 29576 29577    1
 24032 29576 29578    1
 24033 29579 29580    1
 24034 29579 29581    1
 24035 29582 29583    1
 24036 29582 29584    1
 24037 29585 29586    1
 24038 29585 29587    1
 24039 29588 29589    1
 24040 29588 29590    1
 24041 29591 29592    1
 24042 29591 29593    1
 24043 29594 29595    1
 24044 29594 29596    1
 24045 29597 29598    1
 24046 29597 29599    1
 24047 29600 29601    1
 24048 29600 29602    1
 24049 29603 29604    1
 24050 29603 29605    1
 24051 29606 29607    1
 24052 29606 29608    1
 24053 29609 29610    1
 24054 29609 29611    1
 24055 29612 29613    1
 24056 29612 29614    1
 24057 29615 29616    1
 24058 29615 29617    1
 24059 29618 29619    1
 24060 29618 29620    1
 24061 29621 29622    1
 24062 29621 29623    1
 24063 29624 29625    1
 24064 29624 29626    1
 24065 29627 29628    1
 24066 29627 29629    1
 24067 29630 29631    1
 24068 29630 29632    1
 24069 29633 29634    1
 24070 29633 29635    1
 24071 29636 29637    1
 24072 29636 29638    1
 24073 29639 29640    1
 24074 29639 29641    1
 24075 29642 29643    1
 24076 29642 29644    1
 24077 29645 29646    1
 24078 29645 29647    1
 24079 29648 29649    1
 24080 29648 29650    1
 24081 29651 29652    1
 24082 29651 29653    1
 24083 29654 29655    1
 24084 29654 29656    1
 24085 29657 29658    1
 24086 29657 29659    1
 24087 29660 29661    1
 24088 29660 29662    1
 24089 29663 29664    1
 24090 29663 29665    1
 24091 29666 29667    1
 24092 29666 29668    1
 24093 29669 29670    1
 24094 29669 29671    1
 24095 29672 29673    1
 24096 29672 29674    1
 24097 29675 29676    1
 24098 29675 29677    1
 24099 29678 29679    1
 24100 29678 29680    1
 24101 29681 29682    1
 24102 29681 29683    1
 24103 29684 29685    1
 24104 29684 29686    1
 24105 29687 29688    1
 24106 29687 29689    1
 24107 29690 29691    1
 24108 29690 29692    1
 24109 29693 29694    1
 24110 29693 29695    1
 24111 29696 29697    1
 24112 29696 29698    1
 24113 29699 29700    1
 24114 29699 29701    1
 24115 29702 29703    1
 24116 29702 29704    1
 24117 29705 29706    1
 24118 29705 29707    1
 24119 29708 29709    1
 24120 29708 29710    1
 24121 29711 29712    1
 24122 29711 29713    1
 24123 29714 29715    1
 24124 29714 29716    1
 24125 29717 29718    1
 24126 29717 29719    1
 24127 29720 29721    1
 24128 29720 29722    1
 24129 29723 29724    1
 24130 29723 29725    1
 24131 29726 29727    1
 24132 29726 29728    1
 24133 29729 29730    1
 24134 29729 29731    1
 24135 29732 29733    1
 24136 29732 29734    1
 24137 29735 29736    1
 24138 29735 29737    1
 24139 29738 29739    1
 24140 29738 29740    1
 24141 29741 29742    1
 24142 29741 29743    1
 24143 29744 29745    1
 24144 29744 29746    1
 24145 29747 29748    1
 24146 29747 29749    1
 24147 29750 29751    1
 24148 29750 29752    1
 24149 29753 29754    1
 24150 29753 29755    1
 24151 29756 29757    1
 24152 29756 29758    1
 24153 29759 29760    1
 24154 29759 29761    1
 24155 29762 29763    1
 24156 29762 29764    1
 24157 29765 29766    1
 24158 29765 29767    1
 24159 29768 29769    1
 24160 29768 29770    1
 24161 29771 29772    1
 24162 29771 29773    1
 24163 29774 29775    1
 24164 29774 29776    1
 24165 29777 29778    1
 24166 29777 29779    1
 24167 29780 29781    1
 24168 29780 29782    1
 24169 29783 29784    1
 24170 29783 29785    1
 24171 29786 29787    1
 24172 29786 29788    1
 24173 29789 29790    1
 24174 29789 29791    1
 24175 29792 29793    1
 24176 29792 29794    1
 24177 29795 29796    1
 24178 29795 29797    1
 24179 29798 29799    1
 24180 29798 29800    1
 24181 29801 29802    1
 24182 29801 29803    1
 24183 29804 29805    1
 24184 29804 29806    1
 24185 29807 29808    1
 24186 29807 29809    1
 24187 29810 29811    1
 24188 29810 29812    1
 24189 29813 29814    1
 24190 29813 29815    1
 24191 29816 29817    1
 24192 29816 29818    1
 24193 29819 29820    1
 24194 29819 29821    1
 24195 29822 29823    1
 24196 29822 29824    1
 24197 29825 29826    1
 24198 29825 29827    1
 24199 29828 29829    1
 24200 29828 29830    1
 24201 29831 29832    1
 24202 29831 29833    1
 24203 29834 29835    1
 24204 29834 29836    1
 24205 29837 29838    1
 24206 29837 29839    1
 24207 29840 29841    1
 24208 29840 29842    1
 24209 29843 29844    1
 24210 29843 29845    1
 24211 29846 29847    1
 24212 29846 29848    1
 24213 29849 29850    1
 24214 29849 29851    1
 24215 29852 29853    1
 24216 29852 29854    1
 24217 29855 29856    1
 24218 29855 29857    1
 24219 29858 29859    1
 24220 29858 29860    1
 24221 29861 29862    1
 24222 29861 29863    1
 24223 29864 29865    1
 24224 29864 29866    1
 24225 29867 29868    1
 24226 29867 29869    1
 24227 29870 29871    1
 24228 29870 29872    1
 24229 29873 29874    1
 24230 29873 29875    1
 24231 29876 29877    1
 24232 29876 29878    1
 24233 29879 29880    1
 24234 29879 29881    1
 24235 29882 29883    1
 24236 29882 29884    1
 24237 29885 29886    1
 24238 29885 29887    1
 24239 29888 29889    1
 24240 29888 29890    1
 24241 29891 29892    1
 24242 29891 29893    1
 24243 29894 29895    1
 24244 29894 29896    1
 24245 29897 29898    1
 24246 29897 29899    1
 24247 29900 29901    1
 24248 29900 29902    1
 24249 29903 29904    1
 24250 29903 29905    1
 24251 29906 29907    1
 24252 29906 29908    1
 24253 29909 29910    1
 24254 29909 29911    1
 24255 29912 29913    1
 24256 29912 29914    1
 24257 29915 29916    1
 24258 29915 29917    1
 24259 29918 29919    1
 24260 29918 29920    1
 24261 29921 29922    1
 24262 29921 29923    1
 24263 29924 29925    1
 24264 29924 29926    1
 24265 29927 29928    1
 24266 29927 29929    1
 24267 29930 29931    1
 24268 29930 29932    1
 24269 29933 29934    1
 24270 29933 29935    1
 24271 29936 29937    1
 24272 29936 29938    1
 24273 29939 29940    1
 24274 29939 29941    1
 24275 29942 29943    1
 24276 29942 29944    1
 24277 29945 29946    1
 24278 29945 29947    1
 24279 29948 29949    1
 24280 29948 29950    1
 24281 29951 29952    1
 24282 29951 29953    1
 24283 29954 29955    1
 24284 29954 29956    1
 24285 29957 29958    1
 24286 29957 29959    1
 24287 29960 29961    1
 24288 29960 29962    1
 24289 29963 29964    1
 24290 29963 29965    1
 24291 29966 29967    1
 24292 29966 29968    1
 24293 29969 29970    1
 24294 29969 29971    1
 24295 29972 29973    1
 24296 29972 29974    1
 24297 29975 29976    1
 24298 29975 29977    1
 24299 29978 29979    1
 24300 29978 29980    1
 24301 29981 29982    1
 24302 29981 29983    1
 24303 29984 29985    1
 24304 29984 29986    1
 24305 29987 29988    1
 24306 29987 29989    1
 24307 29990 29991    1
 24308 29990 29992    1
 24309 29993 29994    1
 24310 29993 29995    1
 24311 29996 29997    1
 24312 29996 29998    1
 24313 29999 30000    1
 24314 29999 30001    1
 24315 30002 30003    1
 24316 30002 30004    1
 24317 30005 30006    1
 24318 30005 30007    1
 24319 30008 30009    1
 24320 30008 30010    1
 24321 30011 30012    1
 24322 30011 30013    1
 24323 30014 30015    1
 24324 30014 30016    1
 24325 30017 30018    1
 24326 30017 30019    1
 24327 30020 30021    1
 24328 30020 30022    1
 24329 30023 30024    1
 24330 30023 30025    1
 24331 30026 30027    1
 24332 30026 30028    1
 24333 30029 30030    1
 24334 30029 30031    1
 24335 30032 30033    1
 24336 30032 30034    1
 24337 30035 30036    1
 24338 30035 30037    1
 24339 30038 30039    1
 24340 30038 30040    1
 24341 30041 30042    1
 24342 30041 30043    1
 24343 30044 30045    1
 24344 30044 30046    1
 24345 30047 30048    1
 24346 30047 30049    1
 24347 30050 30051    1
 24348 30050 30052    1
 24349 30053 30054    1
 24350 30053 30055    1
 24351 30056 30057    1
 24352 30056 30058    1
 24353 30059 30060    1
 24354 30059 30061    1
 24355 30062 30063    1
 24356 30062 30064    1
 24357 30065 30066    1
 24358 30065 30067    1
 24359 30068 30069    1
 24360 30068 30070    1
 24361 30071 30072    1
 24362 30071 30073    1
 24363 30074 30075    1
 24364 30074 30076    1
 24365 30077 30078    1
 24366 30077 30079    1
 24367 30080 30081    1
 24368 30080 30082    1
 24369 30083 30084    1
 24370 30083 30085    1
 24371 30086 30087    1
 24372 30086 30088    1
 24373 30089 30090    1
 24374 30089 30091    1
 24375 30092 30093    1
 24376 30092 30094    1
 24377 30095 30096    1
 24378 30095 30097    1
 24379 30098 30099    1
 24380 30098 30100    1
 24381 30101 30102    1
 24382 30101 30103    1
 24383 30104 30105    1
 24384 30104 30106    1
 24385 30107 30108    1
 24386 30107 30109    1
 24387 30110 30111    1
 24388 30110 30112    1
 24389 30113 30114    1
 24390 30113 30115    1
 24391 30116 30117    1
 24392 30116 30118    1
 24393 30119 30120    1
 24394 30119 30121    1
 24395 30122 30123    1
 24396 30122 30124    1
 24397 30125 30126    1
 24398 30125 30127    1
 24399 30128 30129    1
 24400 30128 30130    1
 24401 30131 30132    1
 24402 30131 30133    1
 24403 30134 30135    1
 24404 30134 30136    1
 24405 30137 30138    1
 24406 30137 30139    1
 24407 30140 30141    1
 24408 30140 30142    1
 24409 30143 30144    1
 24410 30143 30145    1
 24411 30146 30147    1
 24412 30146 30148    1
 24413 30149 30150    1
 24414 30149 30151    1
 24415 30152 30153    1
 24416 30152 30154    1
 24417 30155 30156    1
 24418 30155 30157    1
 24419 30158 30159    1
 24420 30158 30160    1
 24421 30161 30162    1
 24422 30161 30163    1
 24423 30164 30165    1
 24424 30164 30166    1
 24425 30167 30168    1
 24426 30167 30169    1
 24427 30170 30171    1
 24428 30170 30172    1
 24429 30173 30174    1
 24430 30173 30175    1
 24431 30176 30177    1
 24432 30176 30178    1
 24433 30179 30180    1
 24434 30179 30181    1
 24435 30182 30183    1
 24436 30182 30184    1
 24437 30185 30186    1
 24438 30185 30187    1
 24439 30188 30189    1
 24440 30188 30190    1
 24441 30191 30192    1
 24442 30191 30193    1
 24443 30194 30195    1
 24444 30194 30196    1
 24445 30197 30198    1
 24446 30197 30199    1
 24447 30200 30201    1
 24448 30200 30202    1
 24449 30203 30204    1
 24450 30203 30205    1
 24451 30206 30207    1
 24452 30206 30208    1
 24453 30209 30210    1
 24454 30209 30211    1
 24455 30212 30213    1
 24456 30212 30214    1
 24457 30215 30216    1
 24458 30215 30217    1
 24459 30218 30219    1
 24460 30218 30220    1
 24461 30221 30222    1
 24462 30221 30223    1
 24463 30224 30225    1
 24464 30224 30226    1
 24465 30227 30228    1
 24466 30227 30229    1
 24467 30230 30231    1
 24468 30230 30232    1
 24469 30233 30234    1
 24470 30233 30235    1
 24471 30236 30237    1
 24472 30236 30238    1
 24473 30239 30240    1
 24474 30239 30241    1
 24475 30242 30243    1
 24476 30242 30244    1
 24477 30245 30246    1
 24478 30245 30247    1
 24479 30248 30249    1
 24480 30248 30250    1
 24481 30251 30252    1
 24482 30251 30253    1
 24483 30254 30255    1
 24484 30254 30256    1
 24485 30257 30258    1
 24486 30257 30259    1
 24487 30260 30261    1
 24488 30260 30262    1
 24489 30263 30264    1
 24490 30263 30265    1
 24491 30266 30267    1
 24492 30266 30268    1
 24493 30269 30270    1
 24494 30269 30271    1
 24495 30272 30273    1
 24496 30272 30274    1
 24497 30275 30276    1
 24498 30275 30277    1
 24499 30278 30279    1
 24500 30278 30280    1
 24501 30281 30282    1
 24502 30281 30283    1
 24503 30284 30285    1
 24504 30284 30286    1
 24505 30287 30288    1
 24506 30287 30289    1
 24507 30290 30291    1
 24508 30290 30292    1
 24509 30293 30294    1
 24510 30293 30295    1
 24511 30296 30297    1
 24512 30296 30298    1
 24513 30299 30300    1
 24514 30299 30301    1
 24515 30302 30303    1
 24516 30302 30304    1
 24517 30305 30306    1
 24518 30305 30307    1
 24519 30308 30309    1
 24520 30308 30310    1
 24521 30311 30312    1
 24522 30311 30313    1
 24523 30314 30315    1
 24524 30314 30316    1
 24525 30317 30318    1
 24526 30317 30319    1
 24527 30320 30321    1
 24528 30320 30322    1
 24529 30323 30324    1
 24530 30323 30325    1
 24531 30326 30327    1
 24532 30326 30328    1
 24533 30329 30330    1
 24534 30329 30331    1
 24535 30332 30333    1
 24536 30332 30334    1
 24537 30335 30336    1
 24538 30335 30337    1
 24539 30338 30339    1
 24540 30338 30340    1
 24541 30341 30342    1
 24542 30341 30343    1
 24543 30344 30345    1
 24544 30344 30346    1
 24545 30347 30348    1
 24546 30347 30349    1
 24547 30350 30351    1
 24548 30350 30352    1
 24549 30353 30354    1
 24550 30353 30355    1
 24551 30356 30357    1
 24552 30356 30358    1
 24553 30359 30360    1
 24554 30359 30361    1
 24555 30362 30363    1
 24556 30362 30364    1
 24557 30365 30366    1
 24558 30365 30367    1
 24559 30368 30369    1
 24560 30368 30370    1
 24561 30371 30372    1
 24562 30371 30373    1
 24563 30374 30375    1
 24564 30374 30376    1
 24565 30377 30378    1
 24566 30377 30379    1
 24567 30380 30381    1
 24568 30380 30382    1
 24569 30383 30384    1
 24570 30383 30385    1
 24571 30386 30387    1
 24572 30386 30388    1
 24573 30389 30390    1
 24574 30389 30391    1
 24575 30392 30393    1
 24576 30392 30394    1
 24577 30395 30396    1
 24578 30395 30397    1
 24579 30398 30399    1
 24580 30398 30400    1
 24581 30401 30402    1
 24582 30401 30403    1
 24583 30404 30405    1
 24584 30404 30406    1
 24585 30407 30408    1
 24586 30407 30409    1
 24587 30410 30411    1
 24588 30410 30412    1
 24589 30413 30414    1
 24590 30413 30415    1
 24591 30416 30417    1
 24592 30416 30418    1
 24593 30419 30420    1
 24594 30419 30421    1
 24595 30422 30423    1
 24596 30422 30424    1
 24597 30425 30426    1
 24598 30425 30427    1
 24599 30428 30429    1
 24600 30428 30430    1
 24601 30431 30432    1
 24602 30431 30433    1
 24603 30434 30435    1
 24604 30434 30436    1
 24605 30437 30438    1
 24606 30437 30439    1
 24607 30440 30441    1
 24608 30440 30442    1
 24609 30443 30444    1
 24610 30443 30445    1
 24611 30446 30447    1
 24612 30446 30448    1
 24613 30449 30450    1
 24614 30449 30451    1
 24615 30452 30453    1
 24616 30452 30454    1
 24617 30455 30456    1
 24618 30455 30457    1
 24619 30458 30459    1
 24620 30458 30460    1
 24621 30461 30462    1
 24622 30461 30463    1
 24623 30464 30465    1
 24624 30464 30466    1
 24625 30467 30468    1
 24626 30467 30469    1
 24627 30470 30471    1
 24628 30470 30472    1
 24629 30473 30474    1
 24630 30473 30475    1
 24631 30476 30477    1
 24632 30476 30478    1
 24633 30479 30480    1
 24634 30479 30481    1
 24635 30482 30483    1
 24636 30482 30484    1
 24637 30485 30486    1
 24638 30485 30487    1
 24639 30488 30489    1
 24640 30488 30490    1
 24641 30491 30492    1
 24642 30491 30493    1
 24643 30494 30495    1
 24644 30494 30496    1
 24645 30497 30498    1
 24646 30497 30499    1
 24647 30500 30501    1
 24648 30500 30502    1
 24649 30503 30504    1
 24650 30503 30505    1
 24651 30506 30507    1
 24652 30506 30508    1
 24653 30509 30510    1
 24654 30509 30511    1
 24655 30512 30513    1
 24656 30512 30514    1
 24657 30515 30516    1
 24658 30515 30517    1
 24659 30518 30519    1
 24660 30518 30520    1
 24661 30521 30522    1
 24662 30521 30523    1
 24663 30524 30525    1
 24664 30524 30526    1
 24665 30527 30528    1
 24666 30527 30529    1
 24667 30530 30531    1
 24668 30530 30532    1
 24669 30533 30534    1
 24670 30533 30535    1
 24671 30536 30537    1
 24672 30536 30538    1
 24673 30539 30540    1
 24674 30539 30541    1
 24675 30542 30543    1
 24676 30542 30544    1
 24677 30545 30546    1
 24678 30545 30547    1
 24679 30548 30549    1
 24680 30548 30550    1
 24681 30551 30552    1
 24682 30551 30553    1
 24683 30554 30555    1
 24684 30554 30556    1
 24685 30557 30558    1
 24686 30557 30559    1
 24687 30560 30561    1
 24688 30560 30562    1
 24689 30563 30564    1
 24690 30563 30565    1
 24691 30566 30567    1
 24692 30566 30568    1
 24693 30569 30570    1
 24694 30569 30571    1
 24695 30572 30573    1
 24696 30572 30574    1
 24697 30575 30576    1
 24698 30575 30577    1
 24699 30578 30579    1
 24700 30578 30580    1
 24701 30581 30582    1
 24702 30581 30583    1
 24703 30584 30585    1
 24704 30584 30586    1
 24705 30587 30588    1
 24706 30587 30589    1
 24707 30590 30591    1
 24708 30590 30592    1
 24709 30593 30594    1
 24710 30593 30595    1
 24711 30596 30597    1
 24712 30596 30598    1
 24713 30599 30600    1
 24714 30599 30601    1
 24715 30602 30603    1
 24716 30602 30604    1
 24717 30605 30606    1
 24718 30605 30607    1
 24719 30608 30609    1
 24720 30608 30610    1
 24721 30611 30612    1
 24722 30611 30613    1
 24723 30614 30615    1
 24724 30614 30616    1
 24725 30617 30618    1
 24726 30617 30619    1
 24727 30620 30621    1
 24728 30620 30622    1
 24729 30623 30624    1
 24730 30623 30625    1
 24731 30626 30627    1
 24732 30626 30628    1
 24733 30629 30630    1
 24734 30629 30631    1
 24735 30632 30633    1
 24736 30632 30634    1
 24737 30635 30636    1
 24738 30635 30637    1
 24739 30638 30639    1
 24740 30638 30640    1
 24741 30641 30642    1
 24742 30641 30643    1
 24743 30644 30645    1
 24744 30644 30646    1
 24745 30647 30648    1
 24746 30647 30649    1
 24747 30650 30651    1
 24748 30650 30652    1
 24749 30653 30654    1
 24750 30653 30655    1
 24751 30656 30657    1
 24752 30656 30658    1
 24753 30659 30660    1
 24754 30659 30661    1
 24755 30662 30663    1
 24756 30662 30664    1
 24757 30665 30666    1
 24758 30665 30667    1
 24759 30668 30669    1
 24760 30668 30670    1
 24761 30671 30672    1
 24762 30671 30673    1
 24763 30674 30675    1
 24764 30674 30676    1
 24765 30677 30678    1
 24766 30677 30679    1
 24767 30680 30681    1
 24768 30680 30682    1
 24769 30683 30684    1
 24770 30683 30685    1
 24771 30686 30687    1
 24772 30686 30688    1
 24773 30689 30690    1
 24774 30689 30691    1
 24775 30692 30693    1
 24776 30692 30694    1
 24777 30695 30696    1
 24778 30695 30697    1
 24779 30698 30699    1
 24780 30698 30700    1
 24781 30701 30702    1
 24782 30701 30703    1
 24783 30704 30705    1
 24784 30704 30706    1
 24785 30707 30708    1
 24786 30707 30709    1
 24787 30710 30711    1
 24788 30710 30712    1
 24789 30713 30714    1
 24790 30713 30715    1
 24791 30716 30717    1
 24792 30716 30718    1
 24793 30719 30720    1
 24794 30719 30721    1
 24795 30722 30723    1
 24796 30722 30724    1
 24797 30725 30726    1
 24798 30725 30727    1
 24799 30728 30729    1
 24800 30728 30730    1
 24801 30731 30732    1
 24802 30731 30733    1
 24803 30734 30735    1
 24804 30734 30736    1
 24805 30737 30738    1
 24806 30737 30739    1
 24807 30740 30741    1
 24808 30740 30742    1
 24809 30743 30744    1
 24810 30743 30745    1
 24811 30746 30747    1
 24812 30746 30748    1
 24813 30749 30750    1
 24814 30749 30751    1
 24815 30752 30753    1
 24816 30752 30754    1
 24817 30755 30756    1
 24818 30755 30757    1
 24819 30758 30759    1
 24820 30758 30760    1
 24821 30761 30762    1
 24822 30761 30763    1
 24823 30764 30765    1
 24824 30764 30766    1
 24825 30767 30768    1
 24826 30767 30769    1
 24827 30770 30771    1
 24828 30770 30772    1
 24829 30773 30774    1
 24830 30773 30775    1
 24831 30776 30777    1
 24832 30776 30778    1
 24833 30779 30780    1
 24834 30779 30781    1
 24835 30782 30783    1
 24836 30782 30784    1
 24837 30785 30786    1
 24838 30785 30787    1
 24839 30788 30789    1
 24840 30788 30790    1
 24841 30791 30792    1
 24842 30791 30793    1
 24843 30794 30795    1
 24844 30794 30796    1
 24845 30797 30798    1
 24846 30797 30799    1
 24847 30800 30801    1
 24848 30800 30802    1
 24849 30803 30804    1
 24850 30803 30805    1
 24851 30806 30807    1
 24852 30806 30808    1
 24853 30809 30810    1
 24854 30809 30811    1
 24855 30812 30813    1
 24856 30812 30814    1
 24857 30815 30816    1
 24858 30815 30817    1
 24859 30818 30819    1
 24860 30818 30820    1
 24861 30821 30822    1
 24862 30821 30823    1
 24863 30824 30825    1
 24864 30824 30826    1
 24865 30827 30828    1
 24866 30827 30829    1
 24867 30830 30831    1
 24868 30830 30832    1
 24869 30833 30834    1
 24870 30833 30835    1
 24871 30836 30837    1
 24872 30836 30838    1
 24873 30839 30840    1
 24874 30839 30841    1
 24875 30842 30843    1
 24876 30842 30844    1
 24877 30845 30846    1
 24878 30845 30847    1
 24879 30848 30849    1
 24880 30848 30850    1
 24881 30851 30852    1
 24882 30851 30853    1
 24883 30854 30855    1
 24884 30854 30856    1
 24885 30857 30858    1
 24886 30857 30859    1
 24887 30860 30861    1
 24888 30860 30862    1
 24889 30863 30864    1
 24890 30863 30865    1
 24891 30866 30867    1
 24892 30866 30868    1
 24893 30869 30870    1
 24894 30869 30871    1
 24895 30872 30873    1
 24896 30872 30874    1
 24897 30875 30876    1
 24898 30875 30877    1
 24899 30878 30879    1
 24900 30878 30880    1
 24901 30881 30882    1
 24902 30881 30883    1
 24903 30884 30885    1
 24904 30884 30886    1
 24905 30887 30888    1
 24906 30887 30889    1
 24907 30890 30891    1
 24908 30890 30892    1
 24909 30893 30894    1
 24910 30893 30895    1
 24911 30896 30897    1
 24912 30896 30898    1
 24913 30899 30900    1
 24914 30899 30901    1
 24915 30902 30903    1
 24916 30902 30904    1
 24917 30905 30906    1
 24918 30905 30907    1
 24919 30908 30909    1
 24920 30908 30910    1
 24921 30911 30912    1
 24922 30911 30913    1
 24923 30914 30915    1
 24924 30914 30916    1
 24925 30917 30918    1
 24926 30917 30919    1
 24927 30920 30921    1
 24928 30920 30922    1
 24929 30923 30924    1
 24930 30923 30925    1
 24931 30926 30927    1
 24932 30926 30928    1
 24933 30929 30930    1
 24934 30929 30931    1
 24935 30932 30933    1
 24936 30932 30934    1
 24937 30935 30936    1
 24938 30935 30937    1
 24939 30938 30939    1
 24940 30938 30940    1
 24941 30941 30942    1
 24942 30941 30943    1
 24943 30944 30945    1
 24944 30944 30946    1
 24945 30947 30948    1
 24946 30947 30949    1
 24947 30950 30951    1
 24948 30950 30952    1
 24949 30953 30954    1
 24950 30953 30955    1
 24951 30956 30957    1
 24952 30956 30958    1
 24953 30959 30960    1
 24954 30959 30961    1
 24955 30962 30963    1
 24956 30962 30964    1
 24957 30965 30966    1
 24958 30965 30967    1
 24959 30968 30969    1
 24960 30968 30970    1
 24961 30971 30972    1
 24962 30971 30973    1
 24963 30974 30975    1
 24964 30974 30976    1
 24965 30977 30978    1
 24966 30977 30979    1
 24967 30980 30981    1
 24968 30980 30982    1
 24969 30983 30984    1
 24970 30983 30985    1
 24971 30986 30987    1
 24972 30986 30988    1
 24973 30989 30990    1
 24974 30989 30991    1
 24975 30992 30993    1
 24976 30992 30994    1
 24977 30995 30996    1
 24978 30995 30997    1
 24979 30998 30999    1
 24980 30998 31000    1
 24981 31001 31002    1
 24982 31001 31003    1
 24983 31004 31005    1
 24984 31004 31006    1
 24985 31007 31008    1
 24986 31007 31009    1
 24987 31010 31011    1
 24988 31010 31012    1
 24989 31013 31014    1
 24990 31013 31015    1
 24991 31016 31017    1
 24992 31016 31018    1
 24993 31019 31020    1
 24994 31019 31021    1
 24995 31022 31023    1
 24996 31022 31024    1
 24997 31025 31026    1
 24998 31025 31027    1
 24999 31028 31029    1
 25000 31028 31030    1
 25001 31031 31032    1
 25002 31031 31033    1
 25003 31034 31035    1
 25004 31034 31036    1
 25005 31037 31038    1
 25006 31037 31039    1
 25007 31040 31041    1
 25008 31040 31042    1
 25009 31043 31044    1
 25010 31043 31045    1
 25011 31046 31047    1
 25012 31046 31048    1
 25013 31049 31050    1
 25014 31049 31051    1
 25015 31052 31053    1
 25016 31052 31054    1
 25017 31055 31056    1
 25018 31055 31057    1
 25019 31058 31059    1
 25020 31058 31060    1
 25021 31061 31062    1
 25022 31061 31063    1
 25023 31064 31065    1
 25024 31064 31066    1
 25025 31067 31068    1
 25026 31067 31069    1
 25027 31070 31071    1
 25028 31070 31072    1
 25029 31073 31074    1
 25030 31073 31075    1
 25031 31076 31077    1
 25032 31076 31078    1
 25033 31079 31080    1
 25034 31079 31081    1
 25035 31082 31083    1
 25036 31082 31084    1
 25037 31085 31086    1
 25038 31085 31087    1
 25039 31088 31089    1
 25040 31088 31090    1
 25041 31091 31092    1
 25042 31091 31093    1
 25043 31094 31095    1
 25044 31094 31096    1
 25045 31097 31098    1
 25046 31097 31099    1
 25047 31100 31101    1
 25048 31100 31102    1
 25049 31103 31104    1
 25050 31103 31105    1
 25051 31106 31107    1
 25052 31106 31108    1
 25053 31109 31110    1
 25054 31109 31111    1
 25055 31112 31113    1
 25056 31112 31114    1
 25057 31115 31116    1
 25058 31115 31117    1
 25059 31118 31119    1
 25060 31118 31120    1
 25061 31121 31122    1
 25062 31121 31123    1
 25063 31124 31125    1
 25064 31124 31126    1
 25065 31127 31128    1
 25066 31127 31129    1
 25067 31130 31131    1
 25068 31130 31132    1
 25069 31133 31134    1
 25070 31133 31135    1
 25071 31136 31137    1
 25072 31136 31138    1
 25073 31139 31140    1
 25074 31139 31141    1
 25075 31142 31143    1
 25076 31142 31144    1
 25077 31145 31146    1
 25078 31145 31147    1
 25079 31148 31149    1
 25080 31148 31150    1
 25081 31151 31152    1
 25082 31151 31153    1
 25083 31154 31155    1
 25084 31154 31156    1
 25085 31157 31158    1
 25086 31157 31159    1
 25087 31160 31161    1
 25088 31160 31162    1
 25089 31163 31164    1
 25090 31163 31165    1
 25091 31166 31167    1
 25092 31166 31168    1
 25093 31169 31170    1
 25094 31169 31171    1
 25095 31172 31173    1
 25096 31172 31174    1
 25097 31175 31176    1
 25098 31175 31177    1
 25099 31178 31179    1
 25100 31178 31180    1
 25101 31181 31182    1
 25102 31181 31183    1
 25103 31184 31185    1
 25104 31184 31186    1
 25105 31187 31188    1
 25106 31187 31189    1
 25107 31190 31191    1
 25108 31190 31192    1
 25109 31193 31194    1
 25110 31193 31195    1
 25111 31196 31197    1
 25112 31196 31198    1
 25113 31199 31200    1
 25114 31199 31201    1
 25115 31202 31203    1
 25116 31202 31204    1
 25117 31205 31206    1
 25118 31205 31207    1
 25119 31208 31209    1
 25120 31208 31210    1
 25121 31211 31212    1
 25122 31211 31213    1
 25123 31214 31215    1
 25124 31214 31216    1
 25125 31217 31218    1
 25126 31217 31219    1
 25127 31220 31221    1
 25128 31220 31222    1
 25129 31223 31224    1
 25130 31223 31225    1
 25131 31226 31227    1
 25132 31226 31228    1
 25133 31229 31230    1
 25134 31229 31231    1
 25135 31232 31233    1
 25136 31232 31234    1
 25137 31235 31236    1
 25138 31235 31237    1
 25139 31238 31239    1
 25140 31238 31240    1
 25141 31241 31242    1
 25142 31241 31243    1
 25143 31244 31245    1
 25144 31244 31246    1
 25145 31247 31248    1
 25146 31247 31249    1
 25147 31250 31251    1
 25148 31250 31252    1
 25149 31253 31254    1
 25150 31253 31255    1
 25151 31256 31257    1
 25152 31256 31258    1
 25153 31259 31260    1
 25154 31259 31261    1
 25155 31262 31263    1
 25156 31262 31264    1
 25157 31265 31266    1
 25158 31265 31267    1
 25159 31268 31269    1
 25160 31268 31270    1
 25161 31271 31272    1
 25162 31271 31273    1
 25163 31274 31275    1
 25164 31274 31276    1
 25165 31277 31278    1
 25166 31277 31279    1
 25167 31280 31281    1
 25168 31280 31282    1
 25169 31283 31284    1
 25170 31283 31285    1
 25171 31286 31287    1
 25172 31286 31288    1
 25173 31289 31290    1
 25174 31289 31291    1
 25175 31292 31293    1
 25176 31292 31294    1
 25177 31295 31296    1
 25178 31295 31297    1
 25179 31298 31299    1
 25180 31298 31300    1
 25181 31301 31302    1
 25182 31301 31303    1
 25183 31304 31305    1
 25184 31304 31306    1
 25185 31307 31308    1
 25186 31307 31309    1
 25187 31310 31311    1
 25188 31310 31312    1
 25189 31313 31314    1
 25190 31313 31315    1
 25191 31316 31317    1
 25192 31316 31318    1
 25193 31319 31320    1
 25194 31319 31321    1
 25195 31322 31323    1
 25196 31322 31324    1
 25197 31325 31326    1
 25198 31325 31327    1
 25199 31328 31329    1
 25200 31328 31330    1
 25201 31331 31332    1
 25202 31331 31333    1
 25203 31334 31335    1
 25204 31334 31336    1
 25205 31337 31338    1
 25206 31337 31339    1
 25207 31340 31341    1
 25208 31340 31342    1
 25209 31343 31344    1
 25210 31343 31345    1
 25211 31346 31347    1
 25212 31346 31348    1
 25213 31349 31350    1
 25214 31349 31351    1
 25215 31352 31353    1
 25216 31352 31354    1
 25217 31355 31356    1
 25218 31355 31357    1
 25219 31358 31359    1
 25220 31358 31360    1
 25221 31361 31362    1
 25222 31361 31363    1
 25223 31364 31365    1
 25224 31364 31366    1
 25225 31367 31368    1
 25226 31367 31369    1
 25227 31370 31371    1
 25228 31370 31372    1
 25229 31373 31374    1
 25230 31373 31375    1
 25231 31376 31377    1
 25232 31376 31378    1
 25233 31379 31380    1
 25234 31379 31381    1
 25235 31382 31383    1
 25236 31382 31384    1
 25237 31385 31386    1
 25238 31385 31387    1
 25239 31388 31389    1
 25240 31388 31390    1
 25241 31391 31392    1
 25242 31391 31393    1
 25243 31394 31395    1
 25244 31394 31396    1
 25245 31397 31398    1
 25246 31397 31399    1
 25247 31400 31401    1
 25248 31400 31402    1
 25249 31403 31404    1
 25250 31403 31405    1
 25251 31406 31407    1
 25252 31406 31408    1
 25253 31409 31410    1
 25254 31409 31411    1
 25255 31412 31413    1
 25256 31412 31414    1
 25257 31415 31416    1
 25258 31415 31417    1
 25259 31418 31419    1
 25260 31418 31420    1
 25261 31421 31422    1
 25262 31421 31423    1
 25263 31424 31425    1
 25264 31424 31426    1
 25265 31427 31428    1
 25266 31427 31429    1
 25267 31430 31431    1
 25268 31430 31432    1
 25269 31433 31434    1
 25270 31433 31435    1
 25271 31436 31437    1
 25272 31436 31438    1
 25273 31439 31440    1
 25274 31439 31441    1
 25275 31442 31443    1
 25276 31442 31444    1
 25277 31445 31446    1
 25278 31445 31447    1
 25279 31448 31449    1
 25280 31448 31450    1
 25281 31451 31452    1
 25282 31451 31453    1
 25283 31454 31455    1
 25284 31454 31456    1
 25285 31457 31458    1
 25286 31457 31459    1
 25287 31460 31461    1
 25288 31460 31462    1
 25289 31463 31464    1
 25290 31463 31465    1
 25291 31466 31467    1
 25292 31466 31468    1
 25293 31469 31470    1
 25294 31469 31471    1
 25295 31472 31473    1
 25296 31472 31474    1
 25297 31475 31476    1
 25298 31475 31477    1
 25299 31478 31479    1
 25300 31478 31480    1
 25301 31481 31482    1
 25302 31481 31483    1
 25303 31484 31485    1
 25304 31484 31486    1
 25305 31487 31488    1
 25306 31487 31489    1
 25307 31490 31491    1
 25308 31490 31492    1
 25309 31493 31494    1
 25310 31493 31495    1
 25311 31496 31497    1
 25312 31496 31498    1
 25313 31499 31500    1
 25314 31499 31501    1
 25315 31502 31503    1
 25316 31502 31504    1
 25317 31505 31506    1
 25318 31505 31507    1
 25319 31508 31509    1
 25320 31508 31510    1
 25321 31511 31512    1
 25322 31511 31513    1
 25323 31514 31515    1
 25324 31514 31516    1
 25325 31517 31518    1
 25326 31517 31519    1
 25327 31520 31521    1
 25328 31520 31522    1
 25329 31523 31524    1
 25330 31523 31525    1
 25331 31526 31527    1
 25332 31526 31528    1
 25333 31529 31530    1
 25334 31529 31531    1
 25335 31532 31533    1
 25336 31532 31534    1
 25337 31535 31536    1
 25338 31535 31537    1
 25339 31538 31539    1
 25340 31538 31540    1
 25341 31541 31542    1
 25342 31541 31543    1
 25343 31544 31545    1
 25344 31544 31546    1
 25345 31547 31548    1
 25346 31547 31549    1
 25347 31550 31551    1
 25348 31550 31552    1
 25349 31553 31554    1
 25350 31553 31555    1
 25351 31556 31557    1
 25352 31556 31558    1
 25353 31559 31560    1
 25354 31559 31561    1
 25355 31562 31563    1
 25356 31562 31564    1
 25357 31565 31566    1
 25358 31565 31567    1
 25359 31568 31569    1
 25360 31568 31570    1
 25361 31571 31572    1
 25362 31571 31573    1
 25363 31574 31575    1
 25364 31574 31576    1
 25365 31577 31578    1
 25366 31577 31579    1
 25367 31580 31581    1
 25368 31580 31582    1
 25369 31583 31584    1
 25370 31583 31585    1
 25371 31586 31587    1
 25372 31586 31588    1
 25373 31589 31590    1
 25374 31589 31591    1
 25375 31592 31593    1
 25376 31592 31594    1
 25377 31595 31596    1
 25378 31595 31597    1
 25379 31598 31599    1
 25380 31598 31600    1
 25381 31601 31602    1
 25382 31601 31603    1
 25383 31604 31605    1
 25384 31604 31606    1
 25385 31607 31608    1
 25386 31607 31609    1
 25387 31610 31611    1
 25388 31610 31612    1
 25389 31613 31614    1
 25390 31613 31615    1
 25391 31616 31617    1
 25392 31616 31618    1
 25393 31619 31620    1
 25394 31619 31621    1
 25395 31622 31623    1
 25396 31622 31624    1
 25397 31625 31626    1
 25398 31625 31627    1
 25399 31628 31629    1
 25400 31628 31630    1
 25401 31631 31632    1
 25402 31631 31633    1
 25403 31634 31635    1
 25404 31634 31636    1
 25405 31637 31638    1
 25406 31637 31639    1
 25407 31640 31641    1
 25408 31640 31642    1
 25409 31643 31644    1
 25410 31643 31645    1
 25411 31646 31647    1
 25412 31646 31648    1
 25413 31649 31650    1
 25414 31649 31651    1
 25415 31652 31653    1
 25416 31652 31654    1
 25417 31655 31656    1
 25418 31655 31657    1
 25419 31658 31659    1
 25420 31658 31660    1
 25421 31661 31662    1
 25422 31661 31663    1
 25423 31664 31665    1
 25424 31664 31666    1
 25425 31667 31668    1
 25426 31667 31669    1
 25427 31670 31671    1
 25428 31670 31672    1
 25429 31673 31674    1
 25430 31673 31675    1
 25431 31676 31677    1
 25432 31676 31678    1
 25433 31679 31680    1
 25434 31679 31681    1
 25435 31682 31683    1
 25436 31682 31684    1
 25437 31685 31686    1
 25438 31685 31687    1
 25439 31688 31689    1
 25440 31688 31690    1
 25441 31691 31692    1
 25442 31691 31693    1
 25443 31694 31695    1
 25444 31694 31696    1
 25445 31697 31698    1
 25446 31697 31699    1
 25447 31700 31701    1
 25448 31700 31702    1
 25449 31703 31704    1
 25450 31703 31705    1
 25451 31706 31707    1
 25452 31706 31708    1
 25453 31709 31710    1
 25454 31709 31711    1
 25455 31712 31713    1
 25456 31712 31714    1
 25457 31715 31716    1
 25458 31715 31717    1
 25459 31718 31719    1
 25460 31718 31720    1
 25461 31721 31722    1
 25462 31721 31723    1
 25463 31724 31725    1
 25464 31724 31726    1
 25465 31727 31728    1
 25466 31727 31729    1
 25467 31730 31731    1
 25468 31730 31732    1
 25469 31733 31734    1
 25470 31733 31735    1
 25471 31736 31737    1
 25472 31736 31738    1
 25473 31739 31740    1
 25474 31739 31741    1
 25475 31742 31743    1
 25476 31742 31744    1
 25477 31745 31746    1
 25478 31745 31747    1
 25479 31748 31749    1
 25480 31748 31750    1
 25481 31751 31752    1
 25482 31751 31753    1
 25483 31754 31755    1
 25484 31754 31756    1
 25485 31757 31758    1
 25486 31757 31759    1
 25487 31760 31761    1
 25488 31760 31762    1
 25489 31763 31764    1
 25490 31763 31765    1
 25491 31766 31767    1
 25492 31766 31768    1
 25493 31769 31770    1
 25494 31769 31771    1
 25495 31772 31773    1
 25496 31772 31774    1
 25497 31775 31776    1
 25498 31775 31777    1
 25499 31778 31779    1
 25500 31778 31780    1
 25501 31781 31782    1
 25502 31781 31783    1
 25503 31784 31785    1
 25504 31784 31786    1
 25505 31787 31788    1
 25506 31787 31789    1
 25507 31790 31791    1
 25508 31790 31792    1
 25509 31793 31794    1
 25510 31793 31795    1
 25511 31796 31797    1
 25512 31796 31798    1
 25513 31799 31800    1
 25514 31799 31801    1
 25515 31802 31803    1
 25516 31802 31804    1
 25517 31805 31806    1
 25518 31805 31807    1
 25519 31808 31809    1
 25520 31808 31810    1
 25521 31811 31812    1
 25522 31811 31813    1
 25523 31814 31815    1
 25524 31814 31816    1
 25525 31817 31818    1
 25526 31817 31819    1
 25527 31820 31821    1
 25528 31820 31822    1
 25529 31823 31824    1
 25530 31823 31825    1
 25531 31826 31827    1
 25532 31826 31828    1
 25533 31829 31830    1
 25534 31829 31831    1
 25535 31832 31833    1
 25536 31832 31834    1
 25537 31835 31836    1
 25538 31835 31837    1
 25539 31838 31839    1
 25540 31838 31840    1
 25541 31841 31842    1
 25542 31841 31843    1
 25543 31844 31845    1
 25544 31844 31846    1
 25545 31847 31848    1
 25546 31847 31849    1
 25547 31850 31851    1
 25548 31850 31852    1
 25549 31853 31854    1
 25550 31853 31855    1
 25551 31856 31857    1
 25552 31856 31858    1
 25553 31859 31860    1
 25554 31859 31861    1
 25555 31862 31863    1
 25556 31862 31864    1
 25557 31865 31866    1
 25558 31865 31867    1
 25559 31868 31869    1
 25560 31868 31870    1
 25561 31871 31872    1
 25562 31871 31873    1
 25563 31874 31875    1
 25564 31874 31876    1
 25565 31877 31878    1
 25566 31877 31879    1
 25567 31880 31881    1
 25568 31880 31882    1
 25569 31883 31884    1
 25570 31883 31885    1
 25571 31886 31887    1
 25572 31886 31888    1
 25573 31889 31890    1
 25574 31889 31891    1
 25575 31892 31893    1
 25576 31892 31894    1
 25577 31895 31896    1
 25578 31895 31897    1
 25579 31898 31899    1
 25580 31898 31900    1
 25581 31901 31902    1
 25582 31901 31903    1
 25583 31904 31905    1
 25584 31904 31906    1
 25585 31907 31908    1
 25586 31907 31909    1
 25587 31910 31911    1
 25588 31910 31912    1
 25589 31913 31914    1
 25590 31913 31915    1
 25591 31916 31917    1
 25592 31916 31918    1
 25593 31919 31920    1
 25594 31919 31921    1
 25595 31922 31923    1
 25596 31922 31924    1
 25597 31925 31926    1
 25598 31925 31927    1
 25599 31928 31929    1
 25600 31928 31930    1
 25601 31931 31932    1
 25602 31931 31933    1
 25603 31934 31935    1
 25604 31934 31936    1
 25605 31937 31938    1
 25606 31937 31939    1
 25607 31940 31941    1
 25608 31940 31942    1
 25609 31943 31944    1
 25610 31943 31945    1
 25611 31946 31947    1
 25612 31946 31948    1
 25613 31949 31950    1
 25614 31949 31951    1
 25615 31952 31953    1
 25616 31952 31954    1
 25617 31955 31956    1
 25618 31955 31957    1
 25619 31958 31959    1
 25620 31958 31960    1
 25621 31961 31962    1
 25622 31961 31963    1
 25623 31964 31965    1
 25624 31964 31966    1
 25625 31967 31968    1
 25626 31967 31969    1
 25627 31970 31971    1
 25628 31970 31972    1
 25629 31973 31974    1
 25630 31973 31975    1
 25631 31976 31977    1
 25632 31976 31978    1
 25633 31979 31980    1
 25634 31979 31981    1
 25635 31982 31983    1
 25636 31982 31984    1
 25637 31985 31986    1
 25638 31985 31987    1
 25639 31988 31989    1
 25640 31988 31990    1
 25641 31991 31992    1
 25642 31991 31993    1
 25643 31994 31995    1
 25644 31994 31996    1
 25645 31997 31998    1
 25646 31997 31999    1
 25647 32000 32001    1
 25648 32000 32002    1
 25649 32003 32004    1
 25650 32003 32005    1
 25651 32006 32007    1
 25652 32006 32008    1
 25653 32009 32010    1
 25654 32009 32011    1
 25655 32012 32013    1
 25656 32012 32014    1
 25657 32015 32016    1
 25658 32015 32017    1
 25659 32018 32019    1
 25660 32018 32020    1
 25661 32021 32022    1
 25662 32021 32023    1
 25663 32024 32025    1
 25664 32024 32026    1
 25665 32027 32028    1
 25666 32027 32029    1
 25667 32030 32031    1
 25668 32030 32032    1
 25669 32033 32034    1
 25670 32033 32035    1
 25671 32036 32037    1
 25672 32036 32038    1
 25673 32039 32040    1
 25674 32039 32041    1
 25675 32042 32043    1
 25676 32042 32044    1
 25677 32045 32046    1
 25678 32045 32047    1
 25679 32048 32049    1
 25680 32048 32050    1
 25681 32051 32052    1
 25682 32051 32053    1
 25683 32054 32055    1
 25684 32054 32056    1
 25685 32057 32058    1
 25686 32057 32059    1
 25687 32060 32061    1
 25688 32060 32062    1
 25689 32063 32064    1
 25690 32063 32065    1
 25691 32066 32067    1
 25692 32066 32068    1
 25693 32069 32070    1
 25694 32069 32071    1
 25695 32072 32073    1
 25696 32072 32074    1
 25697 32075 32076    1
 25698 32075 32077    1
 25699 32078 32079    1
 25700 32078 32080    1
 25701 32081 32082    1
 25702 32081 32083    1
 25703 32084 32085    1
 25704 32084 32086    1
 25705 32087 32088    1
 25706 32087 32089    1
 25707 32090 32091    1
 25708 32090 32092    1
 25709 32093 32094    1
 25710 32093 32095    1
 25711 32096 32097    1
 25712 32096 32098    1
 25713 32099 32100    1
 25714 32099 32101    1
 25715 32102 32103    1
 25716 32102 32104    1
 25717 32105 32106    1
 25718 32105 32107    1
 25719 32108 32109    1
 25720 32108 32110    1
 25721 32111 32112    1
 25722 32111 32113    1
 25723 32114 32115    1
 25724 32114 32116    1
 25725 32117 32118    1
 25726 32117 32119    1
 25727 32120 32121    1
 25728 32120 32122    1
 25729 32123 32124    1
 25730 32123 32125    1
 25731 32126 32127    1
 25732 32126 32128    1
 25733 32129 32130    1
 25734 32129 32131    1
 25735 32132 32133    1
 25736 32132 32134    1
 25737 32135 32136    1
 25738 32135 32137    1
 25739 32138 32139    1
 25740 32138 32140    1
 25741 32141 32142    1
 25742 32141 32143    1
 25743 32144 32145    1
 25744 32144 32146    1
 25745 32147 32148    1
 25746 32147 32149    1
 25747 32150 32151    1
 25748 32150 32152    1
 25749 32153 32154    1
 25750 32153 32155    1
 25751 32156 32157    1
 25752 32156 32158    1
 25753 32159 32160    1
 25754 32159 32161    1
 25755 32162 32163    1
 25756 32162 32164    1
 25757 32165 32166    1
 25758 32165 32167    1
 25759 32168 32169    1
 25760 32168 32170    1
 25761 32171 32172    1
 25762 32171 32173    1
 25763 32174 32175    1
 25764 32174 32176    1
 25765 32177 32178    1
 25766 32177 32179    1
 25767 32180 32181    1
 25768 32180 32182    1
 25769 32183 32184    1
 25770 32183 32185    1
 25771 32186 32187    1
 25772 32186 32188    1
 25773 32189 32190    1
 25774 32189 32191    1
 25775 32192 32193    1
 25776 32192 32194    1
 25777 32195 32196    1
 25778 32195 32197    1
 25779 32198 32199    1
 25780 32198 32200    1
 25781 32201 32202    1
 25782 32201 32203    1
 25783 32204 32205    1
 25784 32204 32206    1
 25785 32207 32208    1
 25786 32207 32209    1
 25787 32210 32211    1
 25788 32210 32212    1
 25789 32213 32214    1
 25790 32213 32215    1
 25791 32216 32217    1
 25792 32216 32218    1
 25793 32219 32220    1
 25794 32219 32221    1
 25795 32222 32223    1
 25796 32222 32224    1
 25797 32225 32226    1
 25798 32225 32227    1
 25799 32228 32229    1
 25800 32228 32230    1
 25801 32231 32232    1
 25802 32231 32233    1
 25803 32234 32235    1
 25804 32234 32236    1
 25805 32237 32238    1
 25806 32237 32239    1
 25807 32240 32241    1
 25808 32240 32242    1
 25809 32243 32244    1
 25810 32243 32245    1
 25811 32246 32247    1
 25812 32246 32248    1
 25813 32249 32250    1
 25814 32249 32251    1
 25815 32252 32253    1
 25816 32252 32254    1
 25817 32255 32256    1
 25818 32255 32257    1
 25819 32258 32259    1
 25820 32258 32260    1
 25821 32261 32262    1
 25822 32261 32263    1
 25823 32264 32265    1
 25824 32264 32266    1
 25825 32267 32268    1
 25826 32267 32269    1
 25827 32270 32271    1
 25828 32270 32272    1
 25829 32273 32274    1
 25830 32273 32275    1
 25831 32276 32277    1
 25832 32276 32278    1
 25833 32279 32280    1
 25834 32279 32281    1
 25835 32282 32283    1
 25836 32282 32284    1
 25837 32285 32286    1
 25838 32285 32287    1
 25839 32288 32289    1
 25840 32288 32290    1
 25841 32291 32292    1
 25842 32291 32293    1
 25843 32294 32295    1
 25844 32294 32296    1
 25845 32297 32298    1
 25846 32297 32299    1
 25847 32300 32301    1
 25848 32300 32302    1
 25849 32303 32304    1
 25850 32303 32305    1
 25851 32306 32307    1
 25852 32306 32308    1
 25853 32309 32310    1
 25854 32309 32311    1
 25855 32312 32313    1
 25856 32312 32314    1
 25857 32315 32316    1
 25858 32315 32317    1
 25859 32318 32319    1
 25860 32318 32320    1
 25861 32321 32322    1
 25862 32321 32323    1
 25863 32324 32325    1
 25864 32324 32326    1
 25865 32327 32328    1
 25866 32327 32329    1
 25867 32330 32331    1
 25868 32330 32332    1
 25869 32333 32334    1
 25870 32333 32335    1
 25871 32336 32337    1
 25872 32336 32338    1
 25873 32339 32340    1
 25874 32339 32341    1
 25875 32342 32343    1
 25876 32342 32344    1
 25877 32345 32346    1
 25878 32345 32347    1
 25879 32348 32349    1
 25880 32348 32350    1
 25881 32351 32352    1
 25882 32351 32353    1
 25883 32354 32355    1
 25884 32354 32356    1
 25885 32357 32358    1
 25886 32357 32359    1
 25887 32360 32361    1
 25888 32360 32362    1
 25889 32363 32364    1
 25890 32363 32365    1
 25891 32366 32367    1
 25892 32366 32368    1
 25893 32369 32370    1
 25894 32369 32371    1
 25895 32372 32373    1
 25896 32372 32374    1
 25897 32375 32376    1
 25898 32375 32377    1
 25899 32378 32379    1
 25900 32378 32380    1
 25901 32381 32382    1
 25902 32381 32383    1
 25903 32384 32385    1
 25904 32384 32386    1
 25905 32387 32388    1
 25906 32387 32389    1
 25907 32390 32391    1
 25908 32390 32392    1
 25909 32393 32394    1
 25910 32393 32395    1
 25911 32396 32397    1
 25912 32396 32398    1
 25913 32399 32400    1
 25914 32399 32401    1
 25915 32402 32403    1
 25916 32402 32404    1
 25917 32405 32406    1
 25918 32405 32407    1
 25919 32408 32409    1
 25920 32408 32410    1
 25921 32411 32412    1
 25922 32411 32413    1
 25923 32414 32415    1
 25924 32414 32416    1
 25925 32417 32418    1
 25926 32417 32419    1
 25927 32420 32421    1
 25928 32420 32422    1
 25929 32423 32424    1
 25930 32423 32425    1
 25931 32426 32427    1
 25932 32426 32428    1
 25933 32429 32430    1
 25934 32429 32431    1
 25935 32432 32433    1
 25936 32432 32434    1
 25937 32435 32436    1
 25938 32435 32437    1
 25939 32438 32439    1
 25940 32438 32440    1
 25941 32441 32442    1
 25942 32441 32443    1
 25943 32444 32445    1
 25944 32444 32446    1
 25945 32447 32448    1
 25946 32447 32449    1
 25947 32450 32451    1
 25948 32450 32452    1
 25949 32453 32454    1
 25950 32453 32455    1
 25951 32456 32457    1
 25952 32456 32458    1
 25953 32459 32460    1
 25954 32459 32461    1
 25955 32462 32463    1
 25956 32462 32464    1
 25957 32465 32466    1
 25958 32465 32467    1
 25959 32468 32469    1
 25960 32468 32470    1
 25961 32471 32472    1
 25962 32471 32473    1
 25963 32474 32475    1
 25964 32474 32476    1
 25965 32477 32478    1
 25966 32477 32479    1
 25967 32480 32481    1
 25968 32480 32482    1
 25969 32483 32484    1
 25970 32483 32485    1
 25971 32486 32487    1
 25972 32486 32488    1
 25973 32489 32490    1
 25974 32489 32491    1
 25975 32492 32493    1
 25976 32492 32494    1
 25977 32495 32496    1
 25978 32495 32497    1
 25979 32498 32499    1
 25980 32498 32500    1
 25981 32501 32502    1
 25982 32501 32503    1
 25983 32504 32505    1
 25984 32504 32506    1
 25985 32507 32508    1
 25986 32507 32509    1
 25987 32510 32511    1
 25988 32510 32512    1
 25989 32513 32514    1
 25990 32513 32515    1
 25991 32516 32517    1
 25992 32516 32518    1
 25993 32519 32520    1
 25994 32519 32521    1
 25995 32522 32523    1
 25996 32522 32524    1
 25997 32525 32526    1
 25998 32525 32527    1
 25999 32528 32529    1
 26000 32528 32530    1
 26001 32531 32532    1
 26002 32531 32533    1
 26003 32534 32535    1
 26004 32534 32536    1
 26005 32537 32538    1
 26006 32537 32539    1
 26007 32540 32541    1
 26008 32540 32542    1
 26009 32543 32544    1
 26010 32543 32545    1
 26011 32546 32547    1
 26012 32546 32548    1
 26013 32549 32550    1
 26014 32549 32551    1
 26015 32552 32553    1
 26016 32552 32554    1
 26017 32555 32556    1
 26018 32555 32557    1
 26019 32558 32559    1
 26020 32558 32560    1
 26021 32561 32562    1
 26022 32561 32563    1
 26023 32564 32565    1
 26024 32564 32566    1
 26025 32567 32568    1
 26026 32567 32569    1
 26027 32570 32571    1
 26028 32570 32572    1
 26029 32573 32574    1
 26030 32573 32575    1
 26031 32576 32577    1
 26032 32576 32578    1
 26033 32579 32580    1
 26034 32579 32581    1
 26035 32582 32583    1
 26036 32582 32584    1
 26037 32585 32586    1
 26038 32585 32587    1
 26039 32588 32589    1
 26040 32588 32590    1
 26041 32591 32592    1
 26042 32591 32593    1
 26043 32594 32595    1
 26044 32594 32596    1
 26045 32597 32598    1
 26046 32597 32599    1
 26047 32600 32601    1
 26048 32600 32602    1
 26049 32603 32604    1
 26050 32603 32605    1
 26051 32606 32607    1
 26052 32606 32608    1
 26053 32609 32610    1
 26054 32609 32611    1
 26055 32612 32613    1
 26056 32612 32614    1
 26057 32615 32616    1
 26058 32615 32617    1
 26059 32618 32619    1
 26060 32618 32620    1
 26061 32621 32622    1
 26062 32621 32623    1
 26063 32624 32625    1
 26064 32624 32626    1
 26065 32627 32628    1
 26066 32627 32629    1
 26067 32630 32631    1
 26068 32630 32632    1
 26069 32633 32634    1
 26070 32633 32635    1
 26071 32636 32637    1
 26072 32636 32638    1
 26073 32639 32640    1
 26074 32639 32641    1
 26075 32642 32643    1
 26076 32642 32644    1
 26077 32645 32646    1
 26078 32645 32647    1
 26079 32648 32649    1
 26080 32648 32650    1
 26081 32651 32652    1
 26082 32651 32653    1
 26083 32654 32655    1
 26084 32654 32656    1
 26085 32657 32658    1
 26086 32657 32659    1
 26087 32660 32661    1
 26088 32660 32662    1
 26089 32663 32664    1
 26090 32663 32665    1
 26091 32666 32667    1
 26092 32666 32668    1
 26093 32669 32670    1
 26094 32669 32671    1
 26095 32672 32673    1
 26096 32672 32674    1
 26097 32675 32676    1
 26098 32675 32677    1
 26099 32678 32679    1
 26100 32678 32680    1
 26101 32681 32682    1
 26102 32681 32683    1
 26103 32684 32685    1
 26104 32684 32686    1
 26105 32687 32688    1
 26106 32687 32689    1
 26107 32690 32691    1
 26108 32690 32692    1
 26109 32693 32694    1
 26110 32693 32695    1
 26111 32696 32697    1
 26112 32696 32698    1
 26113 32699 32700    1
 26114 32699 32701    1
 26115 32702 32703    1
 26116 32702 32704    1
 26117 32705 32706    1
 26118 32705 32707    1
 26119 32708 32709    1
 26120 32708 32710    1
 26121 32711 32712    1
 26122 32711 32713    1
 26123 32714 32715    1
 26124 32714 32716    1
 26125 32717 32718    1
 26126 32717 32719    1
 26127 32720 32721    1
 26128 32720 32722    1
 26129 32723 32724    1
 26130 32723 32725    1
 26131 32726 32727    1
 26132 32726 32728    1
 26133 32729 32730    1
 26134 32729 32731    1
 26135 32732 32733    1
 26136 32732 32734    1
 26137 32735 32736    1
 26138 32735 32737    1
 26139 32738 32739    1
 26140 32738 32740    1
 26141 32741 32742    1
 26142 32741 32743    1
 26143 32744 32745    1
 26144 32744 32746    1
 26145 32747 32748    1
 26146 32747 32749    1
 26147 32750 32751    1
 26148 32750 32752    1
 26149 32753 32754    1
 26150 32753 32755    1
 26151 32756 32757    1
 26152 32756 32758    1
 26153 32759 32760    1
 26154 32759 32761    1
 26155 32762 32763    1
 26156 32762 32764    1
 26157 32765 32766    1
 26158 32765 32767    1
 26159 32768 32769    1
 26160 32768 32770    1
 26161 32771 32772    1
 26162 32771 32773    1
 26163 32774 32775    1
 26164 32774 32776    1
 26165 32777 32778    1
 26166 32777 32779    1
 26167 32780 32781    1
 26168 32780 32782    1
 26169 32783 32784    1
 26170 32783 32785    1
 26171 32786 32787    1
 26172 32786 32788    1
 26173 32789 32790    1
 26174 32789 32791    1
 26175 32792 32793    1
 26176 32792 32794    1
 26177 32795 32796    1
 26178 32795 32797    1
 26179 32798 32799    1
 26180 32798 32800    1
 26181 32801 32802    1
 26182 32801 32803    1
 26183 32804 32805    1
 26184 32804 32806    1
 26185 32807 32808    1
 26186 32807 32809    1
 26187 32810 32811    1
 26188 32810 32812    1
 26189 32813 32814    1
 26190 32813 32815    1
 26191 32816 32817    1
 26192 32816 32818    1
 26193 32819 32820    1
 26194 32819 32821    1
 26195 32822 32823    1
 26196 32822 32824    1
 26197 32825 32826    1
 26198 32825 32827    1
 26199 32828 32829    1
 26200 32828 32830    1
 26201 32831 32832    1
 26202 32831 32833    1
 26203 32834 32835    1
 26204 32834 32836    1
 26205 32837 32838    1
 26206 32837 32839    1
 26207 32840 32841    1
 26208 32840 32842    1
 26209 32843 32844    1
 26210 32843 32845    1
 26211 32846 32847    1
 26212 32846 32848    1
 26213 32849 32850    1
 26214 32849 32851    1
 26215 32852 32853    1
 26216 32852 32854    1
 26217 32855 32856    1
 26218 32855 32857    1
 26219 32858 32859    1
 26220 32858 32860    1
 26221 32861 32862    1
 26222 32861 32863    1
 26223 32864 32865    1
 26224 32864 32866    1
 26225 32867 32868    1
 26226 32867 32869    1
 26227 32870 32871    1
 26228 32870 32872    1
 26229 32873 32874    1
 26230 32873 32875    1
 26231 32876 32877    1
 26232 32876 32878    1
 26233 32879 32880    1
 26234 32879 32881    1
 26235 32882 32883    1
 26236 32882 32884    1
 26237 32885 32886    1
 26238 32885 32887    1
 26239 32888 32889    1
 26240 32888 32890    1
 26241 32891 32892    1
 26242 32891 32893    1
 26243 32894 32895    1
 26244 32894 32896    1
 26245 32897 32898    1
 26246 32897 32899    1
 26247 32900 32901    1
 26248 32900 32902    1
 26249 32903 32904    1
 26250 32903 32905    1
 26251 32906 32907    1
 26252 32906 32908    1
 26253 32909 32910    1
 26254 32909 32911    1
 26255 32912 32913    1
 26256 32912 32914    1
 26257 32915 32916    1
 26258 32915 32917    1
 26259 32918 32919    1
 26260 32918 32920    1
 26261 32921 32922    1
 26262 32921 32923    1
 26263 32924 32925    1
 26264 32924 32926    1
 26265 32927 32928    1
 26266 32927 32929    1
 26267 32930 32931    1
 26268 32930 32932    1
 26269 32933 32934    1
 26270 32933 32935    1
 26271 32936 32937    1
 26272 32936 32938    1
 26273 32939 32940    1
 26274 32939 32941    1
 26275 32942 32943    1
 26276 32942 32944    1
 26277 32945 32946    1
 26278 32945 32947    1
 26279 32948 32949    1
 26280 32948 32950    1
 26281 32951 32952    1
 26282 32951 32953    1
 26283 32954 32955    1
 26284 32954 32956    1
 26285 32957 32958    1
 26286 32957 32959    1
 26287 32960 32961    1
 26288 32960 32962    1
 26289 32963 32964    1
 26290 32963 32965    1
 26291 32966 32967    1
 26292 32966 32968    1
 26293 32969 32970    1
 26294 32969 32971    1
 26295 32972 32973    1
 26296 32972 32974    1
 26297 32975 32976    1
 26298 32975 32977    1
 26299 32978 32979    1
 26300 32978 32980    1
 26301 32981 32982    1
 26302 32981 32983    1
 26303 32984 32985    1
 26304 32984 32986    1
 26305 32987 32988    1
 26306 32987 32989    1
 26307 32990 32991    1
 26308 32990 32992    1
 26309 32993 32994    1
 26310 32993 32995    1
 26311 32996 32997    1
 26312 32996 32998    1
 26313 32999 33000    1
 26314 32999 33001    1
 26315 33002 33003    1
 26316 33002 33004    1
 26317 33005 33006    1
 26318 33005 33007    1
 26319 33008 33009    1
 26320 33008 33010    1
 26321 33011 33012    1
 26322 33011 33013    1
 26323 33014 33015    1
 26324 33014 33016    1
 26325 33017 33018    1
 26326 33017 33019    1
 26327 33020 33021    1
 26328 33020 33022    1
 26329 33023 33024    1
 26330 33023 33025    1
 26331 33026 33027    1
 26332 33026 33028    1
 26333 33029 33030    1
 26334 33029 33031    1
 26335 33032 33033    1
 26336 33032 33034    1
 26337 33035 33036    1
 26338 33035 33037    1
 26339 33038 33039    1
 26340 33038 33040    1
 26341 33041 33042    1
 26342 33041 33043    1
 26343 33044 33045    1
 26344 33044 33046    1
 26345 33047 33048    1
 26346 33047 33049    1
 26347 33050 33051    1
 26348 33050 33052    1
 26349 33053 33054    1
 26350 33053 33055    1
 26351 33056 33057    1
 26352 33056 33058    1
 26353 33059 33060    1
 26354 33059 33061    1
 26355 33062 33063    1
 26356 33062 33064    1
 26357 33065 33066    1
 26358 33065 33067    1
 26359 33068 33069    1
 26360 33068 33070    1
 26361 33071 33072    1
 26362 33071 33073    1
 26363 33074 33075    1
 26364 33074 33076    1
 26365 33077 33078    1
 26366 33077 33079    1
 26367 33080 33081    1
 26368 33080 33082    1
 26369 33083 33084    1
 26370 33083 33085    1
 26371 33086 33087    1
 26372 33086 33088    1
 26373 33089 33090    1
 26374 33089 33091    1
 26375 33092 33093    1
 26376 33092 33094    1
 26377 33095 33096    1
 26378 33095 33097    1
 26379 33098 33099    1
 26380 33098 33100    1
 26381 33101 33102    1
 26382 33101 33103    1
 26383 33104 33105    1
 26384 33104 33106    1
 26385 33107 33108    1
 26386 33107 33109    1
 26387 33110 33111    1
 26388 33110 33112    1
 26389 33113 33114    1
 26390 33113 33115    1
 26391 33116 33117    1
 26392 33116 33118    1
 26393 33119 33120    1
 26394 33119 33121    1
 26395 33122 33123    1
 26396 33122 33124    1
 26397 33125 33126    1
 26398 33125 33127    1
 26399 33128 33129    1
 26400 33128 33130    1
 26401 33131 33132    1
 26402 33131 33133    1
 26403 33134 33135    1
 26404 33134 33136    1
 26405 33137 33138    1
 26406 33137 33139    1
 26407 33140 33141    1
 26408 33140 33142    1
 26409 33143 33144    1
 26410 33143 33145    1
 26411 33146 33147    1
 26412 33146 33148    1
 26413 33149 33150    1
 26414 33149 33151    1
 26415 33152 33153    1
 26416 33152 33154    1
 26417 33155 33156    1
 26418 33155 33157    1
 26419 33158 33159    1
 26420 33158 33160    1
 26421 33161 33162    1
 26422 33161 33163    1
 26423 33164 33165    1
 26424 33164 33166    1
 26425 33167 33168    1
 26426 33167 33169    1
 26427 33170 33171    1
 26428 33170 33172    1
 26429 33173 33174    1
 26430 33173 33175    1
 26431 33176 33177    1
 26432 33176 33178    1
 26433 33179 33180    1
 26434 33179 33181    1
 26435 33182 33183    1
 26436 33182 33184    1
 26437 33185 33186    1
 26438 33185 33187    1
 26439 33188 33189    1
 26440 33188 33190    1
 26441 33191 33192    1
 26442 33191 33193    1
 26443 33194 33195    1
 26444 33194 33196    1
 26445 33197 33198    1
 26446 33197 33199    1
 26447 33200 33201    1
 26448 33200 33202    1
 26449 33203 33204    1
 26450 33203 33205    1
 26451 33206 33207    1
 26452 33206 33208    1
 26453 33209 33210    1
 26454 33209 33211    1
 26455 33212 33213    1
 26456 33212 33214    1
 26457 33215 33216    1
 26458 33215 33217    1
 26459 33218 33219    1
 26460 33218 33220    1
 26461 33221 33222    1
 26462 33221 33223    1
 26463 33224 33225    1
 26464 33224 33226    1
 26465 33227 33228    1
 26466 33227 33229    1
 26467 33230 33231    1
 26468 33230 33232    1
 26469 33233 33234    1
 26470 33233 33235    1
 26471 33236 33237    1
 26472 33236 33238    1
 26473 33239 33240    1
 26474 33239 33241    1
 26475 33242 33243    1
 26476 33242 33244    1
 26477 33245 33246    1
 26478 33245 33247    1
 26479 33248 33249    1
 26480 33248 33250    1
 26481 33251 33252    1
 26482 33251 33253    1
 26483 33254 33255    1
 26484 33254 33256    1
 26485 33257 33258    1
 26486 33257 33259    1
 26487 33260 33261    1
 26488 33260 33262    1
 26489 33263 33264    1
 26490 33263 33265    1
 26491 33266 33267    1
 26492 33266 33268    1
 26493 33269 33270    1
 26494 33269 33271    1
 26495 33272 33273    1
 26496 33272 33274    1
 26497 33275 33276    1
 26498 33275 33277    1
 26499 33278 33279    1
 26500 33278 33280    1
 26501 33281 33282    1
 26502 33281 33283    1
 26503 33284 33285    1
 26504 33284 33286    1
 26505 33287 33288    1
 26506 33287 33289    1
 26507 33290 33291    1
 26508 33290 33292    1
 26509 33293 33294    1
 26510 33293 33295    1
 26511 33296 33297    1
 26512 33296 33298    1
 26513 33299 33300    1
 26514 33299 33301    1
 26515 33302 33303    1
 26516 33302 33304    1
 26517 33305 33306    1
 26518 33305 33307    1
 26519 33308 33309    1
 26520 33308 33310    1
 26521 33311 33312    1
 26522 33311 33313    1
 26523 33314 33315    1
 26524 33314 33316    1
 26525 33317 33318    1
 26526 33317 33319    1
 26527 33320 33321    1
 26528 33320 33322    1
 26529 33323 33324    1
 26530 33323 33325    1
 26531 33326 33327    1
 26532 33326 33328    1
 26533 33329 33330    1
 26534 33329 33331    1
 26535 33332 33333    1
 26536 33332 33334    1
 26537 33335 33336    1
 26538 33335 33337    1
 26539 33338 33339    1
 26540 33338 33340    1
 26541 33341 33342    1
 26542 33341 33343    1
 26543 33344 33345    1
 26544 33344 33346    1
 26545 33347 33348    1
 26546 33347 33349    1
 26547 33350 33351    1
 26548 33350 33352    1
 26549 33353 33354    1
 26550 33353 33355    1
 26551 33356 33357    1
 26552 33356 33358    1
 26553 33359 33360    1
 26554 33359 33361    1
 26555 33362 33363    1
 26556 33362 33364    1
 26557 33365 33366    1
 26558 33365 33367    1
 26559 33368 33369    1
 26560 33368 33370    1
 26561 33371 33372    1
 26562 33371 33373    1
 26563 33374 33375    1
 26564 33374 33376    1
 26565 33377 33378    1
 26566 33377 33379    1
 26567 33380 33381    1
 26568 33380 33382    1
 26569 33383 33384    1
 26570 33383 33385    1
 26571 33386 33387    1
 26572 33386 33388    1
 26573 33389 33390    1
 26574 33389 33391    1
 26575 33392 33393    1
 26576 33392 33394    1
 26577 33395 33396    1
 26578 33395 33397    1
 26579 33398 33399    1
 26580 33398 33400    1
 26581 33401 33402    1
 26582 33401 33403    1
 26583 33404 33405    1
 26584 33404 33406    1
 26585 33407 33408    1
 26586 33407 33409    1
 26587 33410 33411    1
 26588 33410 33412    1
 26589 33413 33414    1
 26590 33413 33415    1
 26591 33416 33417    1
 26592 33416 33418    1
 26593 33419 33420    1
 26594 33419 33421    1
 26595 33422 33423    1
 26596 33422 33424    1
 26597 33425 33426    1
 26598 33425 33427    1
 26599 33428 33429    1
 26600 33428 33430    1
 26601 33431 33432    1
 26602 33431 33433    1
 26603 33434 33435    1
 26604 33434 33436    1
 26605 33437 33438    1
 26606 33437 33439    1
 26607 33440 33441    1
 26608 33440 33442    1
 26609 33443 33444    1
 26610 33443 33445    1
 26611 33446 33447    1
 26612 33446 33448    1
 26613 33449 33450    1
 26614 33449 33451    1
 26615 33452 33453    1
 26616 33452 33454    1
 26617 33455 33456    1
 26618 33455 33457    1
 26619 33458 33459    1
 26620 33458 33460    1
 26621 33461 33462    1
 26622 33461 33463    1
 26623 33464 33465    1
 26624 33464 33466    1
 26625 33467 33468    1
 26626 33467 33469    1
 26627 33470 33471    1
 26628 33470 33472    1
 26629 33473 33474    1
 26630 33473 33475    1
 26631 33476 33477    1
 26632 33476 33478    1
 26633 33479 33480    1
 26634 33479 33481    1
 26635 33482 33483    1
 26636 33482 33484    1
 26637 33485 33486    1
 26638 33485 33487    1
 26639 33488 33489    1
 26640 33488 33490    1
 26641 33491 33492    1
 26642 33491 33493    1
 26643 33494 33495    1
 26644 33494 33496    1
 26645 33497 33498    1
 26646 33497 33499    1
 26647 33500 33501    1
 26648 33500 33502    1
 26649 33503 33504    1
 26650 33503 33505    1
 26651 33506 33507    1
 26652 33506 33508    1
 26653 33509 33510    1
 26654 33509 33511    1
 26655 33512 33513    1
 26656 33512 33514    1
 26657 33515 33516    1
 26658 33515 33517    1
 26659 33518 33519    1
 26660 33518 33520    1
 26661 33521 33522    1
 26662 33521 33523    1
 26663 33524 33525    1
 26664 33524 33526    1
 26665 33527 33528    1
 26666 33527 33529    1
 26667 33530 33531    1
 26668 33530 33532    1
 26669 33533 33534    1
 26670 33533 33535    1
 26671 33536 33537    1
 26672 33536 33538    1
 26673 33539 33540    1
 26674 33539 33541    1
 26675 33542 33543    1
 26676 33542 33544    1
 26677 33545 33546    1
 26678 33545 33547    1
 26679 33548 33549    1
 26680 33548 33550    1
 26681 33551 33552    1
 26682 33551 33553    1
 26683 33554 33555    1
 26684 33554 33556    1
 26685 33557 33558    1
 26686 33557 33559    1
 26687 33560 33561    1
 26688 33560 33562    1
 26689 33563 33564    1
 26690 33563 33565    1
 26691 33566 33567    1
 26692 33566 33568    1
 26693 33569 33570    1
 26694 33569 33571    1
 26695 33572 33573    1
 26696 33572 33574    1
 26697 33575 33576    1
 26698 33575 33577    1
 26699 33578 33579    1
 26700 33578 33580    1
 26701 33581 33582    1
 26702 33581 33583    1
 26703 33584 33585    1
 26704 33584 33586    1
 26705 33587 33588    1
 26706 33587 33589    1
 26707 33590 33591    1
 26708 33590 33592    1
 26709 33593 33594    1
 26710 33593 33595    1
 26711 33596 33597    1
 26712 33596 33598    1
 26713 33599 33600    1
 26714 33599 33601    1
 26715 33602 33603    1
 26716 33602 33604    1
 26717 33605 33606    1
 26718 33605 33607    1
 26719 33608 33609    1
 26720 33608 33610    1
 26721 33611 33612    1
 26722 33611 33613    1
 26723 33614 33615    1
 26724 33614 33616    1
 26725 33617 33618    1
 26726 33617 33619    1
 26727 33620 33621    1
 26728 33620 33622    1
 26729 33623 33624    1
 26730 33623 33625    1
 26731 33626 33627    1
 26732 33626 33628    1
 26733 33629 33630    1
 26734 33629 33631    1
 26735 33632 33633    1
 26736 33632 33634    1
 26737 33635 33636    1
 26738 33635 33637    1
 26739 33638 33639    1
 26740 33638 33640    1
 26741 33641 33642    1
 26742 33641 33643    1
 26743 33644 33645    1
 26744 33644 33646    1
 26745 33647 33648    1
 26746 33647 33649    1
 26747 33650 33651    1
 26748 33650 33652    1
 26749 33653 33654    1
 26750 33653 33655    1
 26751 33656 33657    1
 26752 33656 33658    1
 26753 33659 33660    1
 26754 33659 33661    1
 26755 33662 33663    1
 26756 33662 33664    1
 26757 33665 33666    1
 26758 33665 33667    1
 26759 33668 33669    1
 26760 33668 33670    1
 26761 33671 33672    1
 26762 33671 33673    1
 26763 33674 33675    1
 26764 33674 33676    1
 26765 33677 33678    1
 26766 33677 33679    1
 26767 33680 33681    1
 26768 33680 33682    1
 26769 33683 33684    1
 26770 33683 33685    1
 26771 33686 33687    1
 26772 33686 33688    1
 26773 33689 33690    1
 26774 33689 33691    1
 26775 33692 33693    1
 26776 33692 33694    1
 26777 33695 33696    1
 26778 33695 33697    1
 26779 33698 33699    1
 26780 33698 33700    1
 26781 33701 33702    1
 26782 33701 33703    1
 26783 33704 33705    1
 26784 33704 33706    1
 26785 33707 33708    1
 26786 33707 33709    1
 26787 33710 33711    1
 26788 33710 33712    1
 26789 33713 33714    1
 26790 33713 33715    1
 26791 33716 33717    1
 26792 33716 33718    1
 26793 33719 33720    1
 26794 33719 33721    1
 26795 33722 33723    1
 26796 33722 33724    1
 26797 33725 33726    1
 26798 33725 33727    1
 26799 33728 33729    1
 26800 33728 33730    1
 26801 33731 33732    1
 26802 33731 33733    1
 26803 33734 33735    1
 26804 33734 33736    1
 26805 33737 33738    1
 26806 33737 33739    1
 26807 33740 33741    1
 26808 33740 33742    1
 26809 33743 33744    1
 26810 33743 33745    1
 26811 33746 33747    1
 26812 33746 33748    1
 26813 33749 33750    1
 26814 33749 33751    1
 26815 33752 33753    1
 26816 33752 33754    1
 26817 33755 33756    1
 26818 33755 33757    1
 26819 33758 33759    1
 26820 33758 33760    1
 26821 33761 33762    1
 26822 33761 33763    1
 26823 33764 33765    1
 26824 33764 33766    1
 26825 33767 33768    1
 26826 33767 33769    1
 26827 33770 33771    1
 26828 33770 33772    1
 26829 33773 33774    1
 26830 33773 33775    1
 26831 33776 33777    1
 26832 33776 33778    1
 26833 33779 33780    1
 26834 33779 33781    1
 26835 33782 33783    1
 26836 33782 33784    1
 26837 33785 33786    1
 26838 33785 33787    1
 26839 33788 33789    1
 26840 33788 33790    1
 26841 33791 33792    1
 26842 33791 33793    1
 26843 33794 33795    1
 26844 33794 33796    1
 26845 33797 33798    1
 26846 33797 33799    1
 26847 33800 33801    1
 26848 33800 33802    1
 26849 33803 33804    1
 26850 33803 33805    1
 26851 33806 33807    1
 26852 33806 33808    1
 26853 33809 33810    1
 26854 33809 33811    1
 26855 33812 33813    1
 26856 33812 33814    1
 26857 33815 33816    1
 26858 33815 33817    1
 26859 33818 33819    1
 26860 33818 33820    1
 26861 33821 33822    1
 26862 33821 33823    1
 26863 33824 33825    1
 26864 33824 33826    1
 26865 33827 33828    1
 26866 33827 33829    1
 26867 33830 33831    1
 26868 33830 33832    1
 26869 33833 33834    1
 26870 33833 33835    1
 26871 33836 33837    1
 26872 33836 33838    1
 26873 33839 33840    1
 26874 33839 33841    1
 26875 33842 33843    1
 26876 33842 33844    1
 26877 33845 33846    1
 26878 33845 33847    1
 26879 33848 33849    1
 26880 33848 33850    1
 26881 33851 33852    1
 26882 33851 33853    1
 26883 33854 33855    1
 26884 33854 33856    1
 26885 33857 33858    1
 26886 33857 33859    1
 26887 33860 33861    1
 26888 33860 33862    1
 26889 33863 33864    1
 26890 33863 33865    1
 26891 33866 33867    1
 26892 33866 33868    1
 26893 33869 33870    1
 26894 33869 33871    1
 26895 33872 33873    1
 26896 33872 33874    1
 26897 33875 33876    1
 26898 33875 33877    1
 26899 33878 33879    1
 26900 33878 33880    1
 26901 33881 33882    1
 26902 33881 33883    1
 26903 33884 33885    1
 26904 33884 33886    1
 26905 33887 33888    1
 26906 33887 33889    1
 26907 33890 33891    1
 26908 33890 33892    1
 26909 33893 33894    1
 26910 33893 33895    1
 26911 33896 33897    1
 26912 33896 33898    1
 26913 33899 33900    1
 26914 33899 33901    1
 26915 33902 33903    1
 26916 33902 33904    1
 26917 33905 33906    1
 26918 33905 33907    1
 26919 33908 33909    1
 26920 33908 33910    1
 26921 33911 33912    1
 26922 33911 33913    1
 26923 33914 33915    1
 26924 33914 33916    1
 26925 33917 33918    1
 26926 33917 33919    1
 26927 33920 33921    1
 26928 33920 33922    1
 26929 33923 33924    1
 26930 33923 33925    1
 26931 33926 33927    1
 26932 33926 33928    1
 26933 33929 33930    1
 26934 33929 33931    1
 26935 33932 33933    1
 26936 33932 33934    1
 26937 33935 33936    1
 26938 33935 33937    1
 26939 33938 33939    1
 26940 33938 33940    1
 26941 33941 33942    1
 26942 33941 33943    1
 26943 33944 33945    1
 26944 33944 33946    1
 26945 33947 33948    1
 26946 33947 33949    1
 26947 33950 33951    1
 26948 33950 33952    1
 26949 33953 33954    1
 26950 33953 33955    1
 26951 33956 33957    1
 26952 33956 33958    1
 26953 33959 33960    1
 26954 33959 33961    1
 26955 33962 33963    1
 26956 33962 33964    1
 26957 33965 33966    1
 26958 33965 33967    1
 26959 33968 33969    1
 26960 33968 33970    1
 26961 33971 33972    1
 26962 33971 33973    1
 26963 33974 33975    1
 26964 33974 33976    1
 26965 33977 33978    1
 26966 33977 33979    1
 26967 33980 33981    1
 26968 33980 33982    1
 26969 33983 33984    1
 26970 33983 33985    1
 26971 33986 33987    1
 26972 33986 33988    1
 26973 33989 33990    1
 26974 33989 33991    1
 26975 33992 33993    1
 26976 33992 33994    1
 26977 33995 33996    1
 26978 33995 33997    1
 26979 33998 33999    1
 26980 33998 34000    1
 26981 34001 34002    1
 26982 34001 34003    1
 26983 34004 34005    1
 26984 34004 34006    1
 26985 34007 34008    1
 26986 34007 34009    1
 26987 34010 34011    1
 26988 34010 34012    1
 26989 34013 34014    1
 26990 34013 34015    1
 26991 34016 34017    1
 26992 34016 34018    1
 26993 34019 34020    1
 26994 34019 34021    1
 26995 34022 34023    1
 26996 34022 34024    1
 26997 34025 34026    1
 26998 34025 34027    1
 26999 34028 34029    1
 27000 34028 34030    1
 27001 34031 34032    1
 27002 34031 34033    1
 27003 34034 34035    1
 27004 34034 34036    1
 27005 34037 34038    1
 27006 34037 34039    1
 27007 34040 34041    1
 27008 34040 34042    1
 27009 34043 34044    1
 27010 34043 34045    1
 27011 34046 34047    1
 27012 34046 34048    1
 27013 34049 34050    1
 27014 34049 34051    1
 27015 34052 34053    1
 27016 34052 34054    1
 27017 34055 34056    1
 27018 34055 34057    1
 27019 34058 34059    1
 27020 34058 34060    1
 27021 34061 34062    1
 27022 34061 34063    1
 27023 34064 34065    1
 27024 34064 34066    1
 27025 34067 34068    1
 27026 34067 34069    1
 27027 34070 34071    1
 27028 34070 34072    1
 27029 34073 34074    1
 27030 34073 34075    1
 27031 34076 34077    1
 27032 34076 34078    1
 27033 34079 34080    1
 27034 34079 34081    1
 27035 34082 34083    1
 27036 34082 34084    1
 27037 34085 34086    1
 27038 34085 34087    1
 27039 34088 34089    1
 27040 34088 34090    1
 27041 34091 34092    1
 27042 34091 34093    1
 27043 34094 34095    1
 27044 34094 34096    1
 27045 34097 34098    1
 27046 34097 34099    1
 27047 34100 34101    1
 27048 34100 34102    1
 27049 34103 34104    1
 27050 34103 34105    1
 27051 34106 34107    1
 27052 34106 34108    1
 27053 34109 34110    1
 27054 34109 34111    1
 27055 34112 34113    1
 27056 34112 34114    1
 27057 34115 34116    1
 27058 34115 34117    1
 27059 34118 34119    1
 27060 34118 34120    1
 27061 34121 34122    1
 27062 34121 34123    1
 27063 34124 34125    1
 27064 34124 34126    1
 27065 34127 34128    1
 27066 34127 34129    1
 27067 34130 34131    1
 27068 34130 34132    1
 27069 34133 34134    1
 27070 34133 34135    1
 27071 34136 34137    1
 27072 34136 34138    1
 27073 34139 34140    1
 27074 34139 34141    1
 27075 34142 34143    1
 27076 34142 34144    1
 27077 34145 34146    1
 27078 34145 34147    1
 27079 34148 34149    1
 27080 34148 34150    1
 27081 34151 34152    1
 27082 34151 34153    1
 27083 34154 34155    1
 27084 34154 34156    1
 27085 34157 34158    1
 27086 34157 34159    1
 27087 34160 34161    1
 27088 34160 34162    1
 27089 34163 34164    1
 27090 34163 34165    1
 27091 34166 34167    1
 27092 34166 34168    1
 27093 34169 34170    1
 27094 34169 34171    1
 27095 34172 34173    1
 27096 34172 34174    1
 27097 34175 34176    1
 27098 34175 34177    1
 27099 34178 34179    1
 27100 34178 34180    1
 27101 34181 34182    1
 27102 34181 34183    1
 27103 34184 34185    1
 27104 34184 34186    1
 27105 34187 34188    1
 27106 34187 34189    1
 27107 34190 34191    1
 27108 34190 34192    1
 27109 34193 34194    1
 27110 34193 34195    1
 27111 34196 34197    1
 27112 34196 34198    1
 27113 34199 34200    1
 27114 34199 34201    1
 27115 34202 34203    1
 27116 34202 34204    1
 27117 34205 34206    1
 27118 34205 34207    1
 27119 34208 34209    1
 27120 34208 34210    1
 27121 34211 34212    1
 27122 34211 34213    1
 27123 34214 34215    1
 27124 34214 34216    1
 27125 34217 34218    1
 27126 34217 34219    1
 27127 34220 34221    1
 27128 34220 34222    1
 27129 34223 34224    1
 27130 34223 34225    1
 27131 34226 34227    1
 27132 34226 34228    1
 27133 34229 34230    1
 27134 34229 34231    1
 27135 34232 34233    1
 27136 34232 34234    1
 27137 34235 34236    1
 27138 34235 34237    1
 27139 34238 34239    1
 27140 34238 34240    1
 27141 34241 34242    1
 27142 34241 34243    1
 27143 34244 34245    1
 27144 34244 34246    1
 27145 34247 34248    1
 27146 34247 34249    1
 27147 34250 34251    1
 27148 34250 34252    1
 27149 34253 34254    1
 27150 34253 34255    1
 27151 34256 34257    1
 27152 34256 34258    1
 27153 34259 34260    1
 27154 34259 34261    1
 27155 34262 34263    1
 27156 34262 34264    1
 27157 34265 34266    1
 27158 34265 34267    1
 27159 34268 34269    1
 27160 34268 34270    1
 27161 34271 34272    1
 27162 34271 34273    1
 27163 34274 34275    1
 27164 34274 34276    1
 27165 34277 34278    1
 27166 34277 34279    1
 27167 34280 34281    1
 27168 34280 34282    1
 27169 34283 34284    1
 27170 34283 34285    1
 27171 34286 34287    1
 27172 34286 34288    1
 27173 34289 34290    1
 27174 34289 34291    1
 27175 34292 34293    1
 27176 34292 34294    1
 27177 34295 34296    1
 27178 34295 34297    1
 27179 34298 34299    1
 27180 34298 34300    1
 27181 34301 34302    1
 27182 34301 34303    1
 27183 34304 34305    1
 27184 34304 34306    1
 27185 34307 34308    1
 27186 34307 34309    1
 27187 34310 34311    1
 27188 34310 34312    1
 27189 34313 34314    1
 27190 34313 34315    1
 27191 34316 34317    1
 27192 34316 34318    1
 27193 34319 34320    1
 27194 34319 34321    1
 27195 34322 34323    1
 27196 34322 34324    1
 27197 34325 34326    1
 27198 34325 34327    1
 27199 34328 34329    1
 27200 34328 34330    1
 27201 34331 34332    1
 27202 34331 34333    1
 27203 34334 34335    1
 27204 34334 34336    1
 27205 34337 34338    1
 27206 34337 34339    1
 27207 34340 34341    1
 27208 34340 34342    1
 27209 34343 34344    1
 27210 34343 34345    1
 27211 34346 34347    1
 27212 34346 34348    1
 27213 34349 34350    1
 27214 34349 34351    1
 27215 34352 34353    1
 27216 34352 34354    1
 27217 34355 34356    1
 27218 34355 34357    1
 27219 34358 34359    1
 27220 34358 34360    1
 27221 34361 34362    1
 27222 34361 34363    1
 27223 34364 34365    1
 27224 34364 34366    1
 27225 34367 34368    1
 27226 34367 34369    1
 27227 34370 34371    1
 27228 34370 34372    1
 27229 34373 34374    1
 27230 34373 34375    1
 27231 34376 34377    1
 27232 34376 34378    1
 27233 34379 34380    1
 27234 34379 34381    1
 27235 34382 34383    1
 27236 34382 34384    1
 27237 34385 34386    1
 27238 34385 34387    1
 27239 34388 34389    1
 27240 34388 34390    1
 27241 34391 34392    1
 27242 34391 34393    1
 27243 34394 34395    1
 27244 34394 34396    1
 27245 34397 34398    1
 27246 34397 34399    1
 27247 34400 34401    1
 27248 34400 34402    1
 27249 34403 34404    1
 27250 34403 34405    1
 27251 34406 34407    1
 27252 34406 34408    1
 27253 34409 34410    1
 27254 34409 34411    1
 27255 34412 34413    1
 27256 34412 34414    1
 27257 34415 34416    1
 27258 34415 34417    1
 27259 34418 34419    1
 27260 34418 34420    1
 27261 34421 34422    1
 27262 34421 34423    1
 27263 34424 34425    1
 27264 34424 34426    1
 27265 34427 34428    1
 27266 34427 34429    1
 27267 34430 34431    1
 27268 34430 34432    1
 27269 34433 34434    1
 27270 34433 34435    1
 27271 34436 34437    1
 27272 34436 34438    1
 27273 34439 34440    1
 27274 34439 34441    1
 27275 34442 34443    1
 27276 34442 34444    1
 27277 34445 34446    1
 27278 34445 34447    1
 27279 34448 34449    1
 27280 34448 34450    1
 27281 34451 34452    1
 27282 34451 34453    1
 27283 34454 34455    1
 27284 34454 34456    1
 27285 34457 34458    1
 27286 34457 34459    1
 27287 34460 34461    1
 27288 34460 34462    1
 27289 34463 34464    1
 27290 34463 34465    1
 27291 34466 34467    1
 27292 34466 34468    1
 27293 34469 34470    1
 27294 34469 34471    1
 27295 34472 34473    1
 27296 34472 34474    1
 27297 34475 34476    1
 27298 34475 34477    1
 27299 34478 34479    1
 27300 34478 34480    1
 27301 34481 34482    1
 27302 34481 34483    1
 27303 34484 34485    1
 27304 34484 34486    1
 27305 34487 34488    1
 27306 34487 34489    1
 27307 34490 34491    1
 27308 34490 34492    1
 27309 34493 34494    1
 27310 34493 34495    1
 27311 34496 34497    1
 27312 34496 34498    1
 27313 34499 34500    1
 27314 34499 34501    1
 27315 34502 34503    1
 27316 34502 34504    1
 27317 34505 34506    1
 27318 34505 34507    1
 27319 34508 34509    1
 27320 34508 34510    1
 27321 34511 34512    1
 27322 34511 34513    1
 27323 34514 34515    1
 27324 34514 34516    1
 27325 34517 34518    1
 27326 34517 34519    1
 27327 34520 34521    1
 27328 34520 34522    1
 27329 34523 34524    1
 27330 34523 34525    1
 27331 34526 34527    1
 27332 34526 34528    1
 27333 34529 34530    1
 27334 34529 34531    1
 27335 34532 34533    1
 27336 34532 34534    1
 27337 34535 34536    1
 27338 34535 34537    1
 27339 34538 34539    1
 27340 34538 34540    1
 27341 34541 34542    1
 27342 34541 34543    1
 27343 34544 34545    1
 27344 34544 34546    1
 27345 34547 34548    1
 27346 34547 34549    1
 27347 34550 34551    1
 27348 34550 34552    1
 27349 34553 34554    1
 27350 34553 34555    1
 27351 34556 34557    1
 27352 34556 34558    1
 27353 34559 34560    1
 27354 34559 34561    1
 27355 34562 34563    1
 27356 34562 34564    1
 27357 34565 34566    1
 27358 34565 34567    1
 27359 34568 34569    1
 27360 34568 34570    1
 27361 34571 34572    1
 27362 34571 34573    1
 27363 34574 34575    1
 27364 34574 34576    1
 27365 34577 34578    1
 27366 34577 34579    1
 27367 34580 34581    1
 27368 34580 34582    1
 27369 34583 34584    1
 27370 34583 34585    1
 27371 34586 34587    1
 27372 34586 34588    1
 27373 34589 34590    1
 27374 34589 34591    1
 27375 34592 34593    1
 27376 34592 34594    1
 27377 34595 34596    1
 27378 34595 34597    1
 27379 34598 34599    1
 27380 34598 34600    1
 27381 34601 34602    1
 27382 34601 34603    1
 27383 34604 34605    1
 27384 34604 34606    1
 27385 34607 34608    1
 27386 34607 34609    1
 27387 34610 34611    1
 27388 34610 34612    1
 27389 34613 34614    1
 27390 34613 34615    1
 27391 34616 34617    1
 27392 34616 34618    1
 27393 34619 34620    1
 27394 34619 34621    1
 27395 34622 34623    1
 27396 34622 34624    1
 27397 34625 34626    1
 27398 34625 34627    1
 27399 34628 34629    1
 27400 34628 34630    1
 27401 34631 34632    1
 27402 34631 34633    1
 27403 34634 34635    1
 27404 34634 34636    1
 27405 34637 34638    1
 27406 34637 34639    1
 27407 34640 34641    1
 27408 34640 34642    1
 27409 34643 34644    1
 27410 34643 34645    1
 27411 34646 34647    1
 27412 34646 34648    1
 27413 34649 34650    1
 27414 34649 34651    1
 27415 34652 34653    1
 27416 34652 34654    1
 27417 34655 34656    1
 27418 34655 34657    1
 27419 34658 34659    1
 27420 34658 34660    1
 27421 34661 34662    1
 27422 34661 34663    1
 27423 34664 34665    1
 27424 34664 34666    1
 27425 34667 34668    1
 27426 34667 34669    1
 27427 34670 34671    1
 27428 34670 34672    1
 27429 34673 34674    1
 27430 34673 34675    1
 27431 34676 34677    1
 27432 34676 34678    1
 27433 34679 34680    1
 27434 34679 34681    1
 27435 34682 34683    1
 27436 34682 34684    1
 27437 34685 34686    1
 27438 34685 34687    1
 27439 34688 34689    1
 27440 34688 34690    1
 27441 34691 34692    1
 27442 34691 34693    1
 27443 34694 34695    1
 27444 34694 34696    1
 27445 34697 34698    1
 27446 34697 34699    1
 27447 34700 34701    1
 27448 34700 34702    1
 27449 34703 34704    1
 27450 34703 34705    1
 27451 34706 34707    1
 27452 34706 34708    1
 27453 34709 34710    1
 27454 34709 34711    1
 27455 34712 34713    1
 27456 34712 34714    1
 27457 34715 34716    1
 27458 34715 34717    1
 27459 34718 34719    1
 27460 34718 34720    1
 27461 34721 34722    1
 27462 34721 34723    1
 27463 34724 34725    1
 27464 34724 34726    1
 27465 34727 34728    1
 27466 34727 34729    1
 27467 34730 34731    1
 27468 34730 34732    1
 27469 34733 34734    1
 27470 34733 34735    1
 27471 34736 34737    1
 27472 34736 34738    1
 27473 34739 34740    1
 27474 34739 34741    1
 27475 34742 34743    1
 27476 34742 34744    1
 27477 34745 34746    1
 27478 34745 34747    1
 27479 34748 34749    1
 27480 34748 34750    1
 27481 34751 34752    1
 27482 34751 34753    1
 27483 34754 34755    1
 27484 34754 34756    1
 27485 34757 34758    1
 27486 34757 34759    1
 27487 34760 34761    1
 27488 34760 34762    1
 27489 34763 34764    1
 27490 34763 34765    1
 27491 34766 34767    1
 27492 34766 34768    1
 27493 34769 34770    1
 27494 34769 34771    1
 27495 34772 34773    1
 27496 34772 34774    1
 27497 34775 34776    1
 27498 34775 34777    1
 27499 34778 34779    1
 27500 34778 34780    1
 27501 34781 34782    1
 27502 34781 34783    1
 27503 34784 34785    1
 27504 34784 34786    1
 27505 34787 34788    1
 27506 34787 34789    1
 27507 34790 34791    1
 27508 34790 34792    1
 27509 34793 34794    1
 27510 34793 34795    1
 27511 34796 34797    1
 27512 34796 34798    1
 27513 34799 34800    1
 27514 34799 34801    1
 27515 34802 34803    1
 27516 34802 34804    1
 27517 34805 34806    1
 27518 34805 34807    1
 27519 34808 34809    1
 27520 34808 34810    1
 27521 34811 34812    1
 27522 34811 34813    1
 27523 34814 34815    1
 27524 34814 34816    1
 27525 34817 34818    1
 27526 34817 34819    1
 27527 34820 34821    1
 27528 34820 34822    1
 27529 34823 34824    1
 27530 34823 34825    1
 27531 34826 34827    1
 27532 34826 34828    1
 27533 34829 34830    1
 27534 34829 34831    1
 27535 34832 34833    1
 27536 34832 34834    1
 27537 34835 34836    1
 27538 34835 34837    1
 27539 34838 34839    1
 27540 34838 34840    1
 27541 34841 34842    1
 27542 34841 34843    1
 27543 34844 34845    1
 27544 34844 34846    1
 27545 34847 34848    1
 27546 34847 34849    1
 27547 34850 34851    1
 27548 34850 34852    1
 27549 34853 34854    1
 27550 34853 34855    1
 27551 34856 34857    1
 27552 34856 34858    1
 27553 34859 34860    1
 27554 34859 34861    1
 27555 34862 34863    1
 27556 34862 34864    1
 27557 34865 34866    1
 27558 34865 34867    1
 27559 34868 34869    1
 27560 34868 34870    1
 27561 34871 34872    1
 27562 34871 34873    1
 27563 34874 34875    1
 27564 34874 34876    1
 27565 34877 34878    1
 27566 34877 34879    1
 27567 34880 34881    1
 27568 34880 34882    1
 27569 34883 34884    1
 27570 34883 34885    1
 27571 34886 34887    1
 27572 34886 34888    1
 27573 34889 34890    1
 27574 34889 34891    1
 27575 34892 34893    1
 27576 34892 34894    1
 27577 34895 34896    1
 27578 34895 34897    1
 27579 34898 34899    1
 27580 34898 34900    1
 27581 34901 34902    1
 27582 34901 34903    1
 27583 34904 34905    1
 27584 34904 34906    1
 27585 34907 34908    1
 27586 34907 34909    1
 27587 34910 34911    1
 27588 34910 34912    1
 27589 34913 34914    1
 27590 34913 34915    1
 27591 34916 34917    1
 27592 34916 34918    1
 27593 34919 34920    1
 27594 34919 34921    1
 27595 34922 34923    1
 27596 34922 34924    1
 27597 34925 34926    1
 27598 34925 34927    1
 27599 34928 34929    1
 27600 34928 34930    1
 27601 34931 34932    1
 27602 34931 34933    1
 27603 34934 34935    1
 27604 34934 34936    1
 27605 34937 34938    1
 27606 34937 34939    1
 27607 34940 34941    1
 27608 34940 34942    1
 27609 34943 34944    1
 27610 34943 34945    1
 27611 34946 34947    1
 27612 34946 34948    1
 27613 34949 34950    1
 27614 34949 34951    1
 27615 34952 34953    1
 27616 34952 34954    1
 27617 34955 34956    1
 27618 34955 34957    1
 27619 34958 34959    1
 27620 34958 34960    1
 27621 34961 34962    1
 27622 34961 34963    1
 27623 34964 34965    1
 27624 34964 34966    1
 27625 34967 34968    1
 27626 34967 34969    1
 27627 34970 34971    1
 27628 34970 34972    1
 27629 34973 34974    1
 27630 34973 34975    1
 27631 34976 34977    1
 27632 34976 34978    1
 27633 34979 34980    1
 27634 34979 34981    1
 27635 34982 34983    1
 27636 34982 34984    1
 27637 34985 34986    1
 27638 34985 34987    1
 27639 34988 34989    1
 27640 34988 34990    1
 27641 34991 34992    1
 27642 34991 34993    1
 27643 34994 34995    1
 27644 34994 34996    1
 27645 34997 34998    1
 27646 34997 34999    1
 27647 35000 35001    1
 27648 35000 35002    1
 27649 35003 35004    1
 27650 35003 35005    1
 27651 35006 35007    1
 27652 35006 35008    1
 27653 35009 35010    1
 27654 35009 35011    1
 27655 35012 35013    1
 27656 35012 35014    1
 27657 35015 35016    1
 27658 35015 35017    1
 27659 35018 35019    1
 27660 35018 35020    1
 27661 35021 35022    1
 27662 35021 35023    1
 27663 35024 35025    1
 27664 35024 35026    1
 27665 35027 35028    1
 27666 35027 35029    1
 27667 35030 35031    1
 27668 35030 35032    1
 27669 35033 35034    1
 27670 35033 35035    1
 27671 35036 35037    1
 27672 35036 35038    1
 27673 35039 35040    1
 27674 35039 35041    1
 27675 35042 35043    1
 27676 35042 35044    1
 27677 35045 35046    1
 27678 35045 35047    1
 27679 35048 35049    1
 27680 35048 35050    1
 27681 35051 35052    1
 27682 35051 35053    1
 27683 35054 35055    1
 27684 35054 35056    1
 27685 35057 35058    1
 27686 35057 35059    1
 27687 35060 35061    1
 27688 35060 35062    1
 27689 35063 35064    1
 27690 35063 35065    1
 27691 35066 35067    1
 27692 35066 35068    1
 27693 35069 35070    1
 27694 35069 35071    1
 27695 35072 35073    1
 27696 35072 35074    1
 27697 35075 35076    1
 27698 35075 35077    1
 27699 35078 35079    1
 27700 35078 35080    1
 27701 35081 35082    1
 27702 35081 35083    1
 27703 35084 35085    1
 27704 35084 35086    1
 27705 35087 35088    1
 27706 35087 35089    1
 27707 35090 35091    1
 27708 35090 35092    1
 27709 35093 35094    1
 27710 35093 35095    1
 27711 35096 35097    1
 27712 35096 35098    1
 27713 35099 35100    1
 27714 35099 35101    1
 27715 35102 35103    1
 27716 35102 35104    1
 27717 35105 35106    1
 27718 35105 35107    1
 27719 35108 35109    1
 27720 35108 35110    1
 27721 35111 35112    1
 27722 35111 35113    1
 27723 35114 35115    1
 27724 35114 35116    1
 27725 35117 35118    1
 27726 35117 35119    1
 27727 35120 35121    1
 27728 35120 35122    1
 27729 35123 35124    1
 27730 35123 35125    1
 27731 35126 35127    1
 27732 35126 35128    1
 27733 35129 35130    1
 27734 35129 35131    1
 27735 35132 35133    1
 27736 35132 35134    1
 27737 35135 35136    1
 27738 35135 35137    1
 27739 35138 35139    1
 27740 35138 35140    1
 27741 35141 35142    1
 27742 35141 35143    1
 27743 35144 35145    1
 27744 35144 35146    1
 27745 35147 35148    1
 27746 35147 35149    1
 27747 35150 35151    1
 27748 35150 35152    1
 27749 35153 35154    1
 27750 35153 35155    1
 27751 35156 35157    1
 27752 35156 35158    1
 27753 35159 35160    1
 27754 35159 35161    1
 27755 35162 35163    1
 27756 35162 35164    1
 27757 35165 35166    1
 27758 35165 35167    1
 27759 35168 35169    1
 27760 35168 35170    1
 27761 35171 35172    1
 27762 35171 35173    1
 27763 35174 35175    1
 27764 35174 35176    1
 27765 35177 35178    1
 27766 35177 35179    1
 27767 35180 35181    1
 27768 35180 35182    1
 27769 35183 35184    1
 27770 35183 35185    1
 27771 35186 35187    1
 27772 35186 35188    1
 27773 35189 35190    1
 27774 35189 35191    1
 27775 35192 35193    1
 27776 35192 35194    1
 27777 35195 35196    1
 27778 35195 35197    1
 27779 35198 35199    1
 27780 35198 35200    1
 27781 35201 35202    1
 27782 35201 35203    1
 27783 35204 35205    1
 27784 35204 35206    1
 27785 35207 35208    1
 27786 35207 35209    1
 27787 35210 35211    1
 27788 35210 35212    1
 27789 35213 35214    1
 27790 35213 35215    1
 27791 35216 35217    1
 27792 35216 35218    1
 27793 35219 35220    1
 27794 35219 35221    1
 27795 35222 35223    1
 27796 35222 35224    1
 27797 35225 35226    1
 27798 35225 35227    1
 27799 35228 35229    1
 27800 35228 35230    1
 27801 35231 35232    1
 27802 35231 35233    1
 27803 35234 35235    1
 27804 35234 35236    1
 27805 35237 35238    1
 27806 35237 35239    1
 27807 35240 35241    1
 27808 35240 35242    1
 27809 35243 35244    1
 27810 35243 35245    1
 27811 35246 35247    1
 27812 35246 35248    1
 27813 35249 35250    1
 27814 35249 35251    1
 27815 35252 35253    1
 27816 35252 35254    1
 27817 35255 35256    1
 27818 35255 35257    1
 27819 35258 35259    1
 27820 35258 35260    1
 27821 35261 35262    1
 27822 35261 35263    1
 27823 35264 35265    1
 27824 35264 35266    1
 27825 35267 35268    1
 27826 35267 35269    1
 27827 35270 35271    1
 27828 35270 35272    1
 27829 35273 35274    1
 27830 35273 35275    1
 27831 35276 35277    1
 27832 35276 35278    1
 27833 35279 35280    1
 27834 35279 35281    1
 27835 35282 35283    1
 27836 35282 35284    1
 27837 35285 35286    1
 27838 35285 35287    1
 27839 35288 35289    1
 27840 35288 35290    1
 27841 35291 35292    1
 27842 35291 35293    1
 27843 35294 35295    1
 27844 35294 35296    1
 27845 35297 35298    1
 27846 35297 35299    1
 27847 35300 35301    1
 27848 35300 35302    1
 27849 35303 35304    1
 27850 35303 35305    1
 27851 35306 35307    1
 27852 35306 35308    1
 27853 35309 35310    1
 27854 35309 35311    1
 27855 35312 35313    1
 27856 35312 35314    1
 27857 35315 35316    1
 27858 35315 35317    1
 27859 35318 35319    1
 27860 35318 35320    1
 27861 35321 35322    1
 27862 35321 35323    1
 27863 35324 35325    1
 27864 35324 35326    1
 27865 35327 35328    1
 27866 35327 35329    1
 27867 35330 35331    1
 27868 35330 35332    1
 27869 35333 35334    1
 27870 35333 35335    1
 27871 35336 35337    1
 27872 35336 35338    1
 27873 35339 35340    1
 27874 35339 35341    1
 27875 35342 35343    1
 27876 35342 35344    1
 27877 35345 35346    1
 27878 35345 35347    1
 27879 35348 35349    1
 27880 35348 35350    1
 27881 35351 35352    1
 27882 35351 35353    1
 27883 35354 35355    1
 27884 35354 35356    1
 27885 35357 35358    1
 27886 35357 35359    1
 27887 35360 35361    1
 27888 35360 35362    1
 27889 35363 35364    1
 27890 35363 35365    1
 27891 35366 35367    1
 27892 35366 35368    1
 27893 35369 35370    1
 27894 35369 35371    1
 27895 35372 35373    1
 27896 35372 35374    1
 27897 35375 35376    1
 27898 35375 35377    1
 27899 35378 35379    1
 27900 35378 35380    1
 27901 35381 35382    1
 27902 35381 35383    1
 27903 35384 35385    1
 27904 35384 35386    1
 27905 35387 35388    1
 27906 35387 35389    1
 27907 35390 35391    1
 27908 35390 35392    1
 27909 35393 35394    1
 27910 35393 35395    1
 27911 35396 35397    1
 27912 35396 35398    1
 27913 35399 35400    1
 27914 35399 35401    1
 27915 35402 35403    1
 27916 35402 35404    1
 27917 35405 35406    1
 27918 35405 35407    1
 27919 35408 35409    1
 27920 35408 35410    1
 27921 35411 35412    1
 27922 35411 35413    1
 27923 35414 35415    1
 27924 35414 35416    1
 27925 35417 35418    1
 27926 35417 35419    1
 27927 35420 35421    1
 27928 35420 35422    1
 27929 35423 35424    1
 27930 35423 35425    1
 27931 35426 35427    1
 27932 35426 35428    1
 27933 35429 35430    1
 27934 35429 35431    1
 27935 35432 35433    1
 27936 35432 35434    1
 27937 35435 35436    1
 27938 35435 35437    1
 27939 35438 35439    1
 27940 35438 35440    1
 27941 35441 35442    1
 27942 35441 35443    1
 27943 35444 35445    1
 27944 35444 35446    1
 27945 35447 35448    1
 27946 35447 35449    1
 27947 35450 35451    1
 27948 35450 35452    1
 27949 35453 35454    1
 27950 35453 35455    1
 27951 35456 35457    1
 27952 35456 35458    1
 27953 35459 35460    1
 27954 35459 35461    1
 27955 35462 35463    1
 27956 35462 35464    1
 27957 35465 35466    1
 27958 35465 35467    1
 27959 35468 35469    1
 27960 35468 35470    1
 27961 35471 35472    1
 27962 35471 35473    1
 27963 35474 35475    1
 27964 35474 35476    1
 27965 35477 35478    1
 27966 35477 35479    1
 27967 35480 35481    1
 27968 35480 35482    1
 27969 35483 35484    1
 27970 35483 35485    1
 27971 35486 35487    1
 27972 35486 35488    1
 27973 35489 35490    1
 27974 35489 35491    1
 27975 35492 35493    1
 27976 35492 35494    1
 27977 35495 35496    1
 27978 35495 35497    1
 27979 35498 35499    1
 27980 35498 35500    1
 27981 35501 35502    1
 27982 35501 35503    1
 27983 35504 35505    1
 27984 35504 35506    1
 27985 35507 35508    1
 27986 35507 35509    1
 27987 35510 35511    1
 27988 35510 35512    1
 27989 35513 35514    1
 27990 35513 35515    1
 27991 35516 35517    1
 27992 35516 35518    1
 27993 35519 35520    1
 27994 35519 35521    1
 27995 35522 35523    1
 27996 35522 35524    1
 27997 35525 35526    1
 27998 35525 35527    1
 27999 35528 35529    1
 28000 35528 35530    1
 28001 35531 35532    1
 28002 35531 35533    1
 28003 35534 35535    1
 28004 35534 35536    1
 28005 35537 35538    1
 28006 35537 35539    1
 28007 35540 35541    1
 28008 35540 35542    1
 28009 35543 35544    1
 28010 35543 35545    1
 28011 35546 35547    1
 28012 35546 35548    1
 28013 35549 35550    1
 28014 35549 35551    1
 28015 35552 35553    1
 28016 35552 35554    1
 28017 35555 35556    1
 28018 35555 35557    1
 28019 35558 35559    1
 28020 35558 35560    1
 28021 35561 35562    1
 28022 35561 35563    1
 28023 35564 35565    1
 28024 35564 35566    1
 28025 35567 35568    1
 28026 35567 35569    1
 28027 35570 35571    1
 28028 35570 35572    1
 28029 35573 35574    1
 28030 35573 35575    1
 28031 35576 35577    1
 28032 35576 35578    1
 28033 35579 35580    1
 28034 35579 35581    1
 28035 35582 35583    1
 28036 35582 35584    1
 28037 35585 35586    1
 28038 35585 35587    1
 28039 35588 35589    1
 28040 35588 35590    1
 28041 35591 35592    1
 28042 35591 35593    1
 28043 35594 35595    1
 28044 35594 35596    1
 28045 35597 35598    1
 28046 35597 35599    1
 28047 35600 35601    1
 28048 35600 35602    1
 28049 35603 35604    1
 28050 35603 35605    1
 28051 35606 35607    1
 28052 35606 35608    1
 28053 35609 35610    1
 28054 35609 35611    1
 28055 35612 35613    1
 28056 35612 35614    1
 28057 35615 35616    1
 28058 35615 35617    1
 28059 35618 35619    1
 28060 35618 35620    1
 28061 35621 35622    1
 28062 35621 35623    1
 28063 35624 35625    1
 28064 35624 35626    1
 28065 35627 35628    1
 28066 35627 35629    1
 28067 35630 35631    1
 28068 35630 35632    1
 28069 35633 35634    1
 28070 35633 35635    1
 28071 35636 35637    1
 28072 35636 35638    1
 28073 35639 35640    1
 28074 35639 35641    1
 28075 35642 35643    1
 28076 35642 35644    1
 28077 35645 35646    1
 28078 35645 35647    1
 28079 35648 35649    1
 28080 35648 35650    1
 28081 35651 35652    1
 28082 35651 35653    1
 28083 35654 35655    1
 28084 35654 35656    1
 28085 35657 35658    1
 28086 35657 35659    1
 28087 35660 35661    1
 28088 35660 35662    1
 28089 35663 35664    1
 28090 35663 35665    1
 28091 35666 35667    1
 28092 35666 35668    1
 28093 35669 35670    1
 28094 35669 35671    1
 28095 35672 35673    1
 28096 35672 35674    1
 28097 35675 35676    1
 28098 35675 35677    1
 28099 35678 35679    1
 28100 35678 35680    1
 28101 35681 35682    1
 28102 35681 35683    1
 28103 35684 35685    1
 28104 35684 35686    1
 28105 35687 35688    1
 28106 35687 35689    1
 28107 35690 35691    1
 28108 35690 35692    1
 28109 35693 35694    1
 28110 35693 35695    1
 28111 35696 35697    1
 28112 35696 35698    1
 28113 35699 35700    1
 28114 35699 35701    1
 28115 35702 35703    1
 28116 35702 35704    1
 28117 35705 35706    1
 28118 35705 35707    1
 28119 35708 35709    1
 28120 35708 35710    1
 28121 35711 35712    1
 28122 35711 35713    1
 28123 35714 35715    1
 28124 35714 35716    1
 28125 35717 35718    1
 28126 35717 35719    1
 28127 35720 35721    1
 28128 35720 35722    1
 28129 35723 35724    1
 28130 35723 35725    1
 28131 35726 35727    1
 28132 35726 35728    1
 28133 35729 35730    1
 28134 35729 35731    1
 28135 35732 35733    1
 28136 35732 35734    1
 28137 35735 35736    1
 28138 35735 35737    1
 28139 35738 35739    1
 28140 35738 35740    1
 28141 35741 35742    1
 28142 35741 35743    1
 28143 35744 35745    1
 28144 35744 35746    1
 28145 35747 35748    1
 28146 35747 35749    1
 28147 35750 35751    1
 28148 35750 35752    1
 28149 35753 35754    1
 28150 35753 35755    1
 28151 35756 35757    1
 28152 35756 35758    1
 28153 35759 35760    1
 28154 35759 35761    1
 28155 35762 35763    1
 28156 35762 35764    1
 28157 35765 35766    1
 28158 35765 35767    1
 28159 35768 35769    1
 28160 35768 35770    1
 28161 35771 35772    1
 28162 35771 35773    1
 28163 35774 35775    1
 28164 35774 35776    1
 28165 35777 35778    1
 28166 35777 35779    1
 28167 35780 35781    1
 28168 35780 35782    1
 28169 35783 35784    1
 28170 35783 35785    1
 28171 35786 35787    1
 28172 35786 35788    1
 28173 35789 35790    1
 28174 35789 35791    1
 28175 35792 35793    1
 28176 35792 35794    1
 28177 35795 35796    1
 28178 35795 35797    1
 28179 35798 35799    1
 28180 35798 35800    1
 28181 35801 35802    1
 28182 35801 35803    1
 28183 35804 35805    1
 28184 35804 35806    1
 28185 35807 35808    1
 28186 35807 35809    1
 28187 35810 35811    1
 28188 35810 35812    1
 28189 35813 35814    1
 28190 35813 35815    1
 28191 35816 35817    1
 28192 35816 35818    1
 28193 35819 35820    1
 28194 35819 35821    1
 28195 35822 35823    1
 28196 35822 35824    1
 28197 35825 35826    1
 28198 35825 35827    1
 28199 35828 35829    1
 28200 35828 35830    1
 28201 35831 35832    1
 28202 35831 35833    1
 28203 35834 35835    1
 28204 35834 35836    1
 28205 35837 35838    1
 28206 35837 35839    1
 28207 35840 35841    1
 28208 35840 35842    1
 28209 35843 35844    1
 28210 35843 35845    1
 28211 35846 35847    1
 28212 35846 35848    1
 28213 35849 35850    1
 28214 35849 35851    1
 28215 35852 35853    1
 28216 35852 35854    1
 28217 35855 35856    1
 28218 35855 35857    1
 28219 35858 35859    1
 28220 35858 35860    1
 28221 35861 35862    1
 28222 35861 35863    1
 28223 35864 35865    1
 28224 35864 35866    1
 28225 35867 35868    1
 28226 35867 35869    1
 28227 35870 35871    1
 28228 35870 35872    1
 28229 35873 35874    1
 28230 35873 35875    1
 28231 35876 35877    1
 28232 35876 35878    1
 28233 35879 35880    1
 28234 35879 35881    1
 28235 35882 35883    1
 28236 35882 35884    1
 28237 35885 35886    1
 28238 35885 35887    1
 28239 35888 35889    1
 28240 35888 35890    1
 28241 35891 35892    1
 28242 35891 35893    1
 28243 35894 35895    1
 28244 35894 35896    1
 28245 35897 35898    1
 28246 35897 35899    1
 28247 35900 35901    1
 28248 35900 35902    1
 28249 35903 35904    1
 28250 35903 35905    1
 28251 35906 35907    1
 28252 35906 35908    1
 28253 35909 35910    1
 28254 35909 35911    1
 28255 35912 35913    1
 28256 35912 35914    1
 28257 35915 35916    1
 28258 35915 35917    1
 28259 35918 35919    1
 28260 35918 35920    1
 28261 35921 35922    1
 28262 35921 35923    1
 28263 35924 35925    1
 28264 35924 35926    1
 28265 35927 35928    1
 28266 35927 35929    1
 28267 35930 35931    1
 28268 35930 35932    1
 28269 35933 35934    1
 28270 35933 35935    1
 28271 35936 35937    1
 28272 35936 35938    1
 28273 35939 35940    1
 28274 35939 35941    1
 28275 35942 35943    1
 28276 35942 35944    1
 28277 35945 35946    1
 28278 35945 35947    1
 28279 35948 35949    1
 28280 35948 35950    1
 28281 35951 35952    1
 28282 35951 35953    1
 28283 35954 35955    1
 28284 35954 35956    1
 28285 35957 35958    1
 28286 35957 35959    1
 28287 35960 35961    1
 28288 35960 35962    1
 28289 35963 35964    1
 28290 35963 35965    1
 28291 35966 35967    1
 28292 35966 35968    1
 28293 35969 35970    1
 28294 35969 35971    1
 28295 35972 35973    1
 28296 35972 35974    1
 28297 35975 35976    1
 28298 35975 35977    1
 28299 35978 35979    1
 28300 35978 35980    1
 28301 35981 35982    1
 28302 35981 35983    1
 28303 35984 35985    1
 28304 35984 35986    1
 28305 35987 35988    1
 28306 35987 35989    1
 28307 35990 35991    1
 28308 35990 35992    1
 28309 35993 35994    1
 28310 35993 35995    1
 28311 35996 35997    1
 28312 35996 35998    1
 28313 35999 36000    1
 28314 35999 36001    1
 28315 36002 36003    1
 28316 36002 36004    1
 28317 36005 36006    1
 28318 36005 36007    1
 28319 36008 36009    1
 28320 36008 36010    1
 28321 36011 36012    1
 28322 36011 36013    1
 28323 36014 36015    1
 28324 36014 36016    1
 28325 36017 36018    1
 28326 36017 36019    1
 28327 36020 36021    1
 28328 36020 36022    1
 28329 36023 36024    1
 28330 36023 36025    1
 28331 36026 36027    1
 28332 36026 36028    1
 28333 36029 36030    1
 28334 36029 36031    1
 28335 36032 36033    1
 28336 36032 36034    1
 28337 36035 36036    1
 28338 36035 36037    1
 28339 36038 36039    1
 28340 36038 36040    1
 28341 36041 36042    1
 28342 36041 36043    1
 28343 36044 36045    1
 28344 36044 36046    1
 28345 36047 36048    1
 28346 36047 36049    1
 28347 36050 36051    1
 28348 36050 36052    1
 28349 36053 36054    1
 28350 36053 36055    1
 28351 36056 36057    1
 28352 36056 36058    1
 28353 36059 36060    1
 28354 36059 36061    1
 28355 36062 36063    1
 28356 36062 36064    1
 28357 36065 36066    1
 28358 36065 36067    1
 28359 36068 36069    1
 28360 36068 36070    1
 28361 36071 36072    1
 28362 36071 36073    1
 28363 36074 36075    1
 28364 36074 36076    1
 28365 36077 36078    1
 28366 36077 36079    1
 28367 36080 36081    1
 28368 36080 36082    1
 28369 36083 36084    1
 28370 36083 36085    1
 28371 36086 36087    1
 28372 36086 36088    1
 28373 36089 36090    1
 28374 36089 36091    1
 28375 36092 36093    1
 28376 36092 36094    1
 28377 36095 36096    1
 28378 36095 36097    1
 28379 36098 36099    1
 28380 36098 36100    1
 28381 36101 36102    1
 28382 36101 36103    1
 28383 36104 36105    1
 28384 36104 36106    1
 28385 36107 36108    1
 28386 36107 36109    1
 28387 36110 36111    1
 28388 36110 36112    1
 28389 36113 36114    1
 28390 36113 36115    1
 28391 36116 36117    1
 28392 36116 36118    1
 28393 36119 36120    1
 28394 36119 36121    1
 28395 36122 36123    1
 28396 36122 36124    1
 28397 36125 36126    1
 28398 36125 36127    1
 28399 36128 36129    1
 28400 36128 36130    1
 28401 36131 36132    1
 28402 36131 36133    1
 28403 36134 36135    1
 28404 36134 36136    1
 28405 36137 36138    1
 28406 36137 36139    1
 28407 36140 36141    1
 28408 36140 36142    1
 28409 36143 36144    1
 28410 36143 36145    1
 28411 36146 36147    1
 28412 36146 36148    1
 28413 36149 36150    1
 28414 36149 36151    1
 28415 36152 36153    1
 28416 36152 36154    1
 28417 36155 36156    1
 28418 36155 36157    1
 28419 36158 36159    1
 28420 36158 36160    1
 28421 36161 36162    1
 28422 36161 36163    1
 28423 36164 36165    1
 28424 36164 36166    1
 28425 36167 36168    1
 28426 36167 36169    1
 28427 36170 36171    1
 28428 36170 36172    1
 28429 36173 36174    1
 28430 36173 36175    1
 28431 36176 36177    1
 28432 36176 36178    1
 28433 36179 36180    1
 28434 36179 36181    1
 28435 36182 36183    1
 28436 36182 36184    1
 28437 36185 36186    1
 28438 36185 36187    1
 28439 36188 36189    1
 28440 36188 36190    1
 28441 36191 36192    1
 28442 36191 36193    1
 28443 36194 36195    1
 28444 36194 36196    1
 28445 36197 36198    1
 28446 36197 36199    1
 28447 36200 36201    1
 28448 36200 36202    1
 28449 36203 36204    1
 28450 36203 36205    1
 28451 36206 36207    1
 28452 36206 36208    1
 28453 36209 36210    1
 28454 36209 36211    1
 28455 36212 36213    1
 28456 36212 36214    1
 28457 36215 36216    1
 28458 36215 36217    1
 28459 36218 36219    1
 28460 36218 36220    1
 28461 36221 36222    1
 28462 36221 36223    1
 28463 36224 36225    1
 28464 36224 36226    1
 28465 36227 36228    1
 28466 36227 36229    1
 28467 36230 36231    1
 28468 36230 36232    1
 28469 36233 36234    1
 28470 36233 36235    1
 28471 36236 36237    1
 28472 36236 36238    1
 28473 36239 36240    1
 28474 36239 36241    1
 28475 36242 36243    1
 28476 36242 36244    1
 28477 36245 36246    1
 28478 36245 36247    1
 28479 36248 36249    1
 28480 36248 36250    1
 28481 36251 36252    1
 28482 36251 36253    1
 28483 36254 36255    1
 28484 36254 36256    1
 28485 36257 36258    1
 28486 36257 36259    1
 28487 36260 36261    1
 28488 36260 36262    1
 28489 36263 36264    1
 28490 36263 36265    1
 28491 36266 36267    1
 28492 36266 36268    1
 28493 36269 36270    1
 28494 36269 36271    1
 28495 36272 36273    1
 28496 36272 36274    1
 28497 36275 36276    1
 28498 36275 36277    1
 28499 36278 36279    1
 28500 36278 36280    1
 28501 36281 36282    1
 28502 36281 36283    1
 28503 36284 36285    1
 28504 36284 36286    1
 28505 36287 36288    1
 28506 36287 36289    1
 28507 36290 36291    1
 28508 36290 36292    1
 28509 36293 36294    1
 28510 36293 36295    1
 28511 36296 36297    1
 28512 36296 36298    1
 28513 36299 36300    1
 28514 36299 36301    1
 28515 36302 36303    1
 28516 36302 36304    1
 28517 36305 36306    1
 28518 36305 36307    1
 28519 36308 36309    1
 28520 36308 36310    1
 28521 36311 36312    1
 28522 36311 36313    1
 28523 36314 36315    1
 28524 36314 36316    1
 28525 36317 36318    1
 28526 36317 36319    1
 28527 36320 36321    1
 28528 36320 36322    1
 28529 36323 36324    1
 28530 36323 36325    1
 28531 36326 36327    1
 28532 36326 36328    1
 28533 36329 36330    1
 28534 36329 36331    1
 28535 36332 36333    1
 28536 36332 36334    1
 28537 36335 36336    1
 28538 36335 36337    1
 28539 36338 36339    1
 28540 36338 36340    1
 28541 36341 36342    1
 28542 36341 36343    1
 28543 36344 36345    1
 28544 36344 36346    1
 28545 36347 36348    1
 28546 36347 36349    1
 28547 36350 36351    1
 28548 36350 36352    1
 28549 36353 36354    1
 28550 36353 36355    1
 28551 36356 36357    1
 28552 36356 36358    1
 28553 36359 36360    1
 28554 36359 36361    1
 28555 36362 36363    1
 28556 36362 36364    1
 28557 36365 36366    1
 28558 36365 36367    1
 28559 36368 36369    1
 28560 36368 36370    1
 28561 36371 36372    1
 28562 36371 36373    1
 28563 36374 36375    1
 28564 36374 36376    1
 28565 36377 36378    1
 28566 36377 36379    1
 28567 36380 36381    1
 28568 36380 36382    1
 28569 36383 36384    1
 28570 36383 36385    1
 28571 36386 36387    1
 28572 36386 36388    1
 28573 36389 36390    1
 28574 36389 36391    1
 28575 36392 36393    1
 28576 36392 36394    1
 28577 36395 36396    1
 28578 36395 36397    1
 28579 36398 36399    1
 28580 36398 36400    1
 28581 36401 36402    1
 28582 36401 36403    1
 28583 36404 36405    1
 28584 36404 36406    1
 28585 36407 36408    1
 28586 36407 36409    1
 28587 36410 36411    1
 28588 36410 36412    1
 28589 36413 36414    1
 28590 36413 36415    1
 28591 36416 36417    1
 28592 36416 36418    1
 28593 36419 36420    1
 28594 36419 36421    1
 28595 36422 36423    1
 28596 36422 36424    1
 28597 36425 36426    1
 28598 36425 36427    1
 28599 36428 36429    1
 28600 36428 36430    1
 28601 36431 36432    1
 28602 36431 36433    1
 28603 36434 36435    1
 28604 36434 36436    1
 28605 36437 36438    1
 28606 36437 36439    1
 28607 36440 36441    1
 28608 36440 36442    1
 28609 36443 36444    1
 28610 36443 36445    1
 28611 36446 36447    1
 28612 36446 36448    1
 28613 36449 36450    1
 28614 36449 36451    1
 28615 36452 36453    1
 28616 36452 36454    1
 28617 36455 36456    1
 28618 36455 36457    1
 28619 36458 36459    1
 28620 36458 36460    1
 28621 36461 36462    1
 28622 36461 36463    1
 28623 36464 36465    1
 28624 36464 36466    1
 28625 36467 36468    1
 28626 36467 36469    1
 28627 36470 36471    1
 28628 36470 36472    1
 28629 36473 36474    1
 28630 36473 36475    1
 28631 36476 36477    1
 28632 36476 36478    1
 28633 36479 36480    1
 28634 36479 36481    1
 28635 36482 36483    1
 28636 36482 36484    1
 28637 36485 36486    1
 28638 36485 36487    1
 28639 36488 36489    1
 28640 36488 36490    1
 28641 36491 36492    1
 28642 36491 36493    1
 28643 36494 36495    1
 28644 36494 36496    1
 28645 36497 36498    1
 28646 36497 36499    1
 28647 36500 36501    1
 28648 36500 36502    1
 28649 36503 36504    1
 28650 36503 36505    1
 28651 36506 36507    1
 28652 36506 36508    1
 28653 36509 36510    1
 28654 36509 36511    1
 28655 36512 36513    1
 28656 36512 36514    1
 28657 36515 36516    1
 28658 36515 36517    1
 28659 36518 36519    1
 28660 36518 36520    1
 28661 36521 36522    1
 28662 36521 36523    1
 28663 36524 36525    1
 28664 36524 36526    1
 28665 36527 36528    1
 28666 36527 36529    1
 28667 36530 36531    1
 28668 36530 36532    1
 28669 36533 36534    1
 28670 36533 36535    1
 28671 36536 36537    1
 28672 36536 36538    1
 28673 36539 36540    1
 28674 36539 36541    1
 28675 36542 36543    1
 28676 36542 36544    1
 28677 36545 36546    1
 28678 36545 36547    1
 28679 36548 36549    1
 28680 36548 36550    1
 28681 36551 36552    1
 28682 36551 36553    1
 28683 36554 36555    1
 28684 36554 36556    1
 28685 36557 36558    1
 28686 36557 36559    1
 28687 36560 36561    1
 28688 36560 36562    1
 28689 36563 36564    1
 28690 36563 36565    1
 28691 36566 36567    1
 28692 36566 36568    1
 28693 36569 36570    1
 28694 36569 36571    1
 28695 36572 36573    1
 28696 36572 36574    1
 28697 36575 36576    1
 28698 36575 36577    1
 28699 36578 36579    1
 28700 36578 36580    1
 28701 36581 36582    1
 28702 36581 36583    1
 28703 36584 36585    1
 28704 36584 36586    1
 28705 36587 36588    1
 28706 36587 36589    1
 28707 36590 36591    1
 28708 36590 36592    1
 28709 36593 36594    1
 28710 36593 36595    1
 28711 36596 36597    1
 28712 36596 36598    1
 28713 36599 36600    1
 28714 36599 36601    1
 28715 36602 36603    1
 28716 36602 36604    1
 28717 36605 36606    1
 28718 36605 36607    1
 28719 36608 36609    1
 28720 36608 36610    1
 28721 36611 36612    1
 28722 36611 36613    1
 28723 36614 36615    1
 28724 36614 36616    1
 28725 36617 36618    1
 28726 36617 36619    1
 28727 36620 36621    1
 28728 36620 36622    1
 28729 36623 36624    1
 28730 36623 36625    1
 28731 36626 36627    1
 28732 36626 36628    1
 28733 36629 36630    1
 28734 36629 36631    1
 28735 36632 36633    1
 28736 36632 36634    1
 28737 36635 36636    1
 28738 36635 36637    1
 28739 36638 36639    1
 28740 36638 36640    1
 28741 36641 36642    1
 28742 36641 36643    1
 28743 36644 36645    1
 28744 36644 36646    1
 28745 36647 36648    1
 28746 36647 36649    1
 28747 36650 36651    1
 28748 36650 36652    1
 28749 36653 36654    1
 28750 36653 36655    1
 28751 36656 36657    1
 28752 36656 36658    1
 28753 36659 36660    1
 28754 36659 36661    1
 28755 36662 36663    1
 28756 36662 36664    1
 28757 36665 36666    1
 28758 36665 36667    1
 28759 36668 36669    1
 28760 36668 36670    1
 28761 36671 36672    1
 28762 36671 36673    1
 28763 36674 36675    1
 28764 36674 36676    1
 28765 36677 36678    1
 28766 36677 36679    1
 28767 36680 36681    1
 28768 36680 36682    1
 28769 36683 36684    1
 28770 36683 36685    1
 28771 36686 36687    1
 28772 36686 36688    1
 28773 36689 36690    1
 28774 36689 36691    1
 28775 36692 36693    1
 28776 36692 36694    1
 28777 36695 36696    1
 28778 36695 36697    1
 28779 36698 36699    1
 28780 36698 36700    1
 28781 36701 36702    1
 28782 36701 36703    1
 28783 36704 36705    1
 28784 36704 36706    1
 28785 36707 36708    1
 28786 36707 36709    1
 28787 36710 36711    1
 28788 36710 36712    1
 28789 36713 36714    1
 28790 36713 36715    1
 28791 36716 36717    1
 28792 36716 36718    1
 28793 36719 36720    1
 28794 36719 36721    1
 28795 36722 36723    1
 28796 36722 36724    1
 28797 36725 36726    1
 28798 36725 36727    1
 28799 36728 36729    1
 28800 36728 36730    1
 28801 36731 36732    1
 28802 36731 36733    1
 28803 36734 36735    1
 28804 36734 36736    1
 28805 36737 36738    1
 28806 36737 36739    1
 28807 36740 36741    1
 28808 36740 36742    1
 28809 36743 36744    1
 28810 36743 36745    1
 28811 36746 36747    1
 28812 36746 36748    1
 28813 36749 36750    1
 28814 36749 36751    1
 28815 36752 36753    1
 28816 36752 36754    1
 28817 36755 36756    1
 28818 36755 36757    1
 28819 36758 36759    1
 28820 36758 36760    1
 28821 36761 36762    1
 28822 36761 36763    1
 28823 36764 36765    1
 28824 36764 36766    1
 28825 36767 36768    1
 28826 36767 36769    1
 28827 36770 36771    1
 28828 36770 36772    1
 28829 36773 36774    1
 28830 36773 36775    1
 28831 36776 36777    1
 28832 36776 36778    1
 28833 36779 36780    1
 28834 36779 36781    1
 28835 36782 36783    1
 28836 36782 36784    1
 28837 36785 36786    1
 28838 36785 36787    1
 28839 36788 36789    1
 28840 36788 36790    1
 28841 36791 36792    1
 28842 36791 36793    1
 28843 36794 36795    1
 28844 36794 36796    1
 28845 36797 36798    1
 28846 36797 36799    1
 28847 36800 36801    1
 28848 36800 36802    1
 28849 36803 36804    1
 28850 36803 36805    1
 28851 36806 36807    1
 28852 36806 36808    1
 28853 36809 36810    1
 28854 36809 36811    1
 28855 36812 36813    1
 28856 36812 36814    1
 28857 36815 36816    1
 28858 36815 36817    1
 28859 36818 36819    1
 28860 36818 36820    1
 28861 36821 36822    1
 28862 36821 36823    1
 28863 36824 36825    1
 28864 36824 36826    1
 28865 36827 36828    1
 28866 36827 36829    1
 28867 36830 36831    1
 28868 36830 36832    1
 28869 36833 36834    1
 28870 36833 36835    1
 28871 36836 36837    1
 28872 36836 36838    1
 28873 36839 36840    1
 28874 36839 36841    1
 28875 36842 36843    1
 28876 36842 36844    1
 28877 36845 36846    1
 28878 36845 36847    1
 28879 36848 36849    1
 28880 36848 36850    1
 28881 36851 36852    1
 28882 36851 36853    1
 28883 36854 36855    1
 28884 36854 36856    1
 28885 36857 36858    1
 28886 36857 36859    1
 28887 36860 36861    1
 28888 36860 36862    1
 28889 36863 36864    1
 28890 36863 36865    1
 28891 36866 36867    1
 28892 36866 36868    1
 28893 36869 36870    1
 28894 36869 36871    1
 28895 36872 36873    1
 28896 36872 36874    1
 28897 36875 36876    1
 28898 36875 36877    1
 28899 36878 36879    1
 28900 36878 36880    1
 28901 36881 36882    1
 28902 36881 36883    1
 28903 36884 36885    1
 28904 36884 36886    1
 28905 36887 36888    1
 28906 36887 36889    1
 28907 36890 36891    1
 28908 36890 36892    1
 28909 36893 36894    1
 28910 36893 36895    1
 28911 36896 36897    1
 28912 36896 36898    1
 28913 36899 36900    1
 28914 36899 36901    1
 28915 36902 36903    1
 28916 36902 36904    1
 28917 36905 36906    1
 28918 36905 36907    1
 28919 36908 36909    1
 28920 36908 36910    1
 28921 36911 36912    1
 28922 36911 36913    1
 28923 36914 36915    1
 28924 36914 36916    1
 28925 36917 36918    1
 28926 36917 36919    1
 28927 36920 36921    1
 28928 36920 36922    1
 28929 36923 36924    1
 28930 36923 36925    1
 28931 36926 36927    1
 28932 36926 36928    1
 28933 36929 36930    1
 28934 36929 36931    1
 28935 36932 36933    1
 28936 36932 36934    1
 28937 36935 36936    1
 28938 36935 36937    1
 28939 36938 36939    1
 28940 36938 36940    1
 28941 36941 36942    1
 28942 36941 36943    1
 28943 36944 36945    1
 28944 36944 36946    1
 28945 36947 36948    1
 28946 36947 36949    1
 28947 36950 36951    1
 28948 36950 36952    1
 28949 36953 36954    1
 28950 36953 36955    1
 28951 36956 36957    1
 28952 36956 36958    1
 28953 36959 36960    1
 28954 36959 36961    1
 28955 36962 36963    1
 28956 36962 36964    1
 28957 36965 36966    1
 28958 36965 36967    1
 28959 36968 36969    1
 28960 36968 36970    1
 28961 36971 36972    1
 28962 36971 36973    1
 28963 36974 36975    1
 28964 36974 36976    1
 28965 36977 36978    1
 28966 36977 36979    1
 28967 36980 36981    1
 28968 36980 36982    1
 28969 36983 36984    1
 28970 36983 36985    1
 28971 36986 36987    1
 28972 36986 36988    1
 28973 36989 36990    1
 28974 36989 36991    1
 28975 36992 36993    1
 28976 36992 36994    1
 28977 36995 36996    1
 28978 36995 36997    1
 28979 36998 36999    1
 28980 36998 37000    1
 28981 37001 37002    1
 28982 37001 37003    1
 28983 37004 37005    1
 28984 37004 37006    1
 28985 37007 37008    1
 28986 37007 37009    1
 28987 37010 37011    1
 28988 37010 37012    1
 28989 37013 37014    1
 28990 37013 37015    1
 28991 37016 37017    1
 28992 37016 37018    1
 28993 37019 37020    1
 28994 37019 37021    1
 28995 37022 37023    1
 28996 37022 37024    1
 28997 37025 37026    1
 28998 37025 37027    1
 28999 37028 37029    1
 29000 37028 37030    1
 29001 37031 37032    1
 29002 37031 37033    1
 29003 37034 37035    1
 29004 37034 37036    1
 29005 37037 37038    1
 29006 37037 37039    1
 29007 37040 37041    1
 29008 37040 37042    1
 29009 37043 37044    1
 29010 37043 37045    1
 29011 37046 37047    1
 29012 37046 37048    1
 29013 37049 37050    1
 29014 37049 37051    1
 29015 37052 37053    1
 29016 37052 37054    1
 29017 37055 37056    1
 29018 37055 37057    1
 29019 37058 37059    1
 29020 37058 37060    1
 29021 37061 37062    1
 29022 37061 37063    1
 29023 37064 37065    1
 29024 37064 37066    1
 29025 37067 37068    1
 29026 37067 37069    1
 29027 37070 37071    1
 29028 37070 37072    1
 29029 37073 37074    1
 29030 37073 37075    1
 29031 37076 37077    1
 29032 37076 37078    1
 29033 37079 37080    1
 29034 37079 37081    1
 29035 37082 37083    1
 29036 37082 37084    1
 29037 37085 37086    1
 29038 37085 37087    1
 29039 37088 37089    1
 29040 37088 37090    1
 29041 37091 37092    1
 29042 37091 37093    1
 29043 37094 37095    1
 29044 37094 37096    1
 29045 37097 37098    1
 29046 37097 37099    1
 29047 37100 37101    1
 29048 37100 37102    1
 29049 37103 37104    1
 29050 37103 37105    1
 29051 37106 37107    1
 29052 37106 37108    1
 29053 37109 37110    1
 29054 37109 37111    1
 29055 37112 37113    1
 29056 37112 37114    1
 29057 37115 37116    1
 29058 37115 37117    1
 29059 37118 37119    1
 29060 37118 37120    1
 29061 37121 37122    1
 29062 37121 37123    1
 29063 37124 37125    1
 29064 37124 37126    1
 29065 37127 37128    1
 29066 37127 37129    1
 29067 37130 37131    1
 29068 37130 37132    1
 29069 37133 37134    1
 29070 37133 37135    1
 29071 37136 37137    1
 29072 37136 37138    1
 29073 37139 37140    1
 29074 37139 37141    1
 29075 37142 37143    1
 29076 37142 37144    1
 29077 37145 37146    1
 29078 37145 37147    1
 29079 37148 37149    1
 29080 37148 37150    1
 29081 37151 37152    1
 29082 37151 37153    1
 29083 37154 37155    1
 29084 37154 37156    1
 29085 37157 37158    1
 29086 37157 37159    1
 29087 37160 37161    1
 29088 37160 37162    1
 29089 37163 37164    1
 29090 37163 37165    1
 29091 37166 37167    1
 29092 37166 37168    1
 29093 37169 37170    1
 29094 37169 37171    1
 29095 37172 37173    1
 29096 37172 37174    1
 29097 37175 37176    1
 29098 37175 37177    1
 29099 37178 37179    1
 29100 37178 37180    1
 29101 37181 37182    1
 29102 37181 37183    1
 29103 37184 37185    1
 29104 37184 37186    1
 29105 37187 37188    1
 29106 37187 37189    1
 29107 37190 37191    1
 29108 37190 37192    1
 29109 37193 37194    1
 29110 37193 37195    1
 29111 37196 37197    1
 29112 37196 37198    1
 29113 37199 37200    1
 29114 37199 37201    1
 29115 37202 37203    1
 29116 37202 37204    1
 29117 37205 37206    1
 29118 37205 37207    1
 29119 37208 37209    1
 29120 37208 37210    1
 29121 37211 37212    1
 29122 37211 37213    1
 29123 37214 37215    1
 29124 37214 37216    1
 29125 37217 37218    1
 29126 37217 37219    1
 29127 37220 37221    1
 29128 37220 37222    1
 29129 37223 37224    1
 29130 37223 37225    1
 29131 37226 37227    1
 29132 37226 37228    1
 29133 37229 37230    1
 29134 37229 37231    1
 29135 37232 37233    1
 29136 37232 37234    1
 29137 37235 37236    1
 29138 37235 37237    1
 29139 37238 37239    1
 29140 37238 37240    1
 29141 37241 37242    1
 29142 37241 37243    1
 29143 37244 37245    1
 29144 37244 37246    1
 29145 37247 37248    1
 29146 37247 37249    1
 29147 37250 37251    1
 29148 37250 37252    1
 29149 37253 37254    1
 29150 37253 37255    1
 29151 37256 37257    1
 29152 37256 37258    1
 29153 37259 37260    1
 29154 37259 37261    1
 29155 37262 37263    1
 29156 37262 37264    1
 29157 37265 37266    1
 29158 37265 37267    1
 29159 37268 37269    1
 29160 37268 37270    1
 29161 37271 37272    1
 29162 37271 37273    1
 29163 37274 37275    1
 29164 37274 37276    1
 29165 37277 37278    1
 29166 37277 37279    1
 29167 37280 37281    1
 29168 37280 37282    1
 29169 37283 37284    1
 29170 37283 37285    1
 29171 37286 37287    1
 29172 37286 37288    1
 29173 37289 37290    1
 29174 37289 37291    1
 29175 37292 37293    1
 29176 37292 37294    1
 29177 37295 37296    1
 29178 37295 37297    1
 29179 37298 37299    1
 29180 37298 37300    1
 29181 37301 37302    1
 29182 37301 37303    1
 29183 37304 37305    1
 29184 37304 37306    1
 29185 37307 37308    1
 29186 37307 37309    1
 29187 37310 37311    1
 29188 37310 37312    1
 29189 37313 37314    1
 29190 37313 37315    1
 29191 37316 37317    1
 29192 37316 37318    1
 29193 37319 37320    1
 29194 37319 37321    1
 29195 37322 37323    1
 29196 37322 37324    1
 29197 37325 37326    1
 29198 37325 37327    1
 29199 37328 37329    1
 29200 37328 37330    1
 29201 37331 37332    1
 29202 37331 37333    1
 29203 37334 37335    1
 29204 37334 37336    1
 29205 37337 37338    1
 29206 37337 37339    1
 29207 37340 37341    1
 29208 37340 37342    1
 29209 37343 37344    1
 29210 37343 37345    1
 29211 37346 37347    1
 29212 37346 37348    1
 29213 37349 37350    1
 29214 37349 37351    1
 29215 37352 37353    1
 29216 37352 37354    1
 29217 37355 37356    1
 29218 37355 37357    1
 29219 37358 37359    1
 29220 37358 37360    1
 29221 37361 37362    1
 29222 37361 37363    1
 29223 37364 37365    1
 29224 37364 37366    1
 29225 37367 37368    1
 29226 37367 37369    1
 29227 37370 37371    1
 29228 37370 37372    1
 29229 37373 37374    1
 29230 37373 37375    1
 29231 37376 37377    1
 29232 37376 37378    1
 29233 37379 37380    1
 29234 37379 37381    1
 29235 37382 37383    1
 29236 37382 37384    1
 29237 37385 37386    1
 29238 37385 37387    1
 29239 37388 37389    1
 29240 37388 37390    1
 29241 37391 37392    1
 29242 37391 37393    1
 29243 37394 37395    1
 29244 37394 37396    1
 29245 37397 37398    1
 29246 37397 37399    1
 29247 37400 37401    1
 29248 37400 37402    1
 29249 37403 37404    1
 29250 37403 37405    1
 29251 37406 37407    1
 29252 37406 37408    1
 29253 37409 37410    1
 29254 37409 37411    1
 29255 37412 37413    1
 29256 37412 37414    1
 29257 37415 37416    1
 29258 37415 37417    1
 29259 37418 37419    1
 29260 37418 37420    1
 29261 37421 37422    1
 29262 37421 37423    1
 29263 37424 37425    1
 29264 37424 37426    1
 29265 37427 37428    1
 29266 37427 37429    1
 29267 37430 37431    1
 29268 37430 37432    1
 29269 37433 37434    1
 29270 37433 37435    1
 29271 37436 37437    1
 29272 37436 37438    1
 29273 37439 37440    1
 29274 37439 37441    1
 29275 37442 37443    1
 29276 37442 37444    1
 29277 37445 37446    1
 29278 37445 37447    1
 29279 37448 37449    1
 29280 37448 37450    1
 29281 37451 37452    1
 29282 37451 37453    1
 29283 37454 37455    1
 29284 37454 37456    1
 29285 37457 37458    1
 29286 37457 37459    1
 29287 37460 37461    1
 29288 37460 37462    1
 29289 37463 37464    1
 29290 37463 37465    1
 29291 37466 37467    1
 29292 37466 37468    1
 29293 37469 37470    1
 29294 37469 37471    1
 29295 37472 37473    1
 29296 37472 37474    1
 29297 37475 37476    1
 29298 37475 37477    1
 29299 37478 37479    1
 29300 37478 37480    1
 29301 37481 37482    1
 29302 37481 37483    1
 29303 37484 37485    1
 29304 37484 37486    1
 29305 37487 37488    1
 29306 37487 37489    1
 29307 37490 37491    1
 29308 37490 37492    1
 29309 37493 37494    1
 29310 37493 37495    1
 29311 37496 37497    1
 29312 37496 37498    1
 29313 37499 37500    1
 29314 37499 37501    1
 29315 37502 37503    1
 29316 37502 37504    1
 29317 37505 37506    1
 29318 37505 37507    1
 29319 37508 37509    1
 29320 37508 37510    1
 29321 37511 37512    1
 29322 37511 37513    1
 29323 37514 37515    1
 29324 37514 37516    1
 29325 37517 37518    1
 29326 37517 37519    1
 29327 37520 37521    1
 29328 37520 37522    1
 29329 37523 37524    1
 29330 37523 37525    1
 29331 37526 37527    1
 29332 37526 37528    1
 29333 37529 37530    1
 29334 37529 37531    1
 29335 37532 37533    1
 29336 37532 37534    1
 29337 37535 37536    1
 29338 37535 37537    1
 29339 37538 37539    1
 29340 37538 37540    1
 29341 37541 37542    1
 29342 37541 37543    1
 29343 37544 37545    1
 29344 37544 37546    1
 29345 37547 37548    1
 29346 37547 37549    1
 29347 37550 37551    1
 29348 37550 37552    1
 29349 37553 37554    1
 29350 37553 37555    1
 29351 37556 37557    1
 29352 37556 37558    1
 29353 37559 37560    1
 29354 37559 37561    1
 29355 37562 37563    1
 29356 37562 37564    1
 29357 37565 37566    1
 29358 37565 37567    1
 29359 37568 37569    1
 29360 37568 37570    1
 29361 37571 37572    1
 29362 37571 37573    1
 29363 37574 37575    1
 29364 37574 37576    1
 29365 37577 37578    1
 29366 37577 37579    1
 29367 37580 37581    1
 29368 37580 37582    1
 29369 37583 37584    1
 29370 37583 37585    1
 29371 37586 37587    1
 29372 37586 37588    1
 29373 37589 37590    1
 29374 37589 37591    1
 29375 37592 37593    1
 29376 37592 37594    1
 29377 37595 37596    1
 29378 37595 37597    1
 29379 37598 37599    1
 29380 37598 37600    1
 29381 37601 37602    1
 29382 37601 37603    1
 29383 37604 37605    1
 29384 37604 37606    1
 29385 37607 37608    1
 29386 37607 37609    1
 29387 37610 37611    1
 29388 37610 37612    1
 29389 37613 37614    1
 29390 37613 37615    1
 29391 37616 37617    1
 29392 37616 37618    1
 29393 37619 37620    1
 29394 37619 37621    1
 29395 37622 37623    1
 29396 37622 37624    1
 29397 37625 37626    1
 29398 37625 37627    1
 29399 37628 37629    1
 29400 37628 37630    1
 29401 37631 37632    1
 29402 37631 37633    1
 29403 37634 37635    1
 29404 37634 37636    1
 29405 37637 37638    1
 29406 37637 37639    1
 29407 37640 37641    1
 29408 37640 37642    1
 29409 37643 37644    1
 29410 37643 37645    1
 29411 37646 37647    1
 29412 37646 37648    1
 29413 37649 37650    1
 29414 37649 37651    1
 29415 37652 37653    1
 29416 37652 37654    1
 29417 37655 37656    1
 29418 37655 37657    1
 29419 37658 37659    1
 29420 37658 37660    1
 29421 37661 37662    1
 29422 37661 37663    1
 29423 37664 37665    1
 29424 37664 37666    1
 29425 37667 37668    1
 29426 37667 37669    1
 29427 37670 37671    1
 29428 37670 37672    1
 29429 37673 37674    1
 29430 37673 37675    1
 29431 37676 37677    1
 29432 37676 37678    1
 29433 37679 37680    1
 29434 37679 37681    1
 29435 37682 37683    1
 29436 37682 37684    1
 29437 37685 37686    1
 29438 37685 37687    1
 29439 37688 37689    1
 29440 37688 37690    1
 29441 37691 37692    1
 29442 37691 37693    1
 29443 37694 37695    1
 29444 37694 37696    1
 29445 37697 37698    1
 29446 37697 37699    1
 29447 37700 37701    1
 29448 37700 37702    1
 29449 37703 37704    1
 29450 37703 37705    1
 29451 37706 37707    1
 29452 37706 37708    1
 29453 37709 37710    1
 29454 37709 37711    1
 29455 37712 37713    1
 29456 37712 37714    1
 29457 37715 37716    1
 29458 37715 37717    1
 29459 37718 37719    1
 29460 37718 37720    1
 29461 37721 37722    1
 29462 37721 37723    1
 29463 37724 37725    1
 29464 37724 37726    1
 29465 37727 37728    1
 29466 37727 37729    1
 29467 37730 37731    1
 29468 37730 37732    1
 29469 37733 37734    1
 29470 37733 37735    1
 29471 37736 37737    1
 29472 37736 37738    1
 29473 37739 37740    1
 29474 37739 37741    1
 29475 37742 37743    1
 29476 37742 37744    1
 29477 37745 37746    1
 29478 37745 37747    1
 29479 37748 37749    1
 29480 37748 37750    1
 29481 37751 37752    1
 29482 37751 37753    1
 29483 37754 37755    1
 29484 37754 37756    1
 29485 37757 37758    1
 29486 37757 37759    1
 29487 37760 37761    1
 29488 37760 37762    1
 29489 37763 37764    1
 29490 37763 37765    1
 29491 37766 37767    1
 29492 37766 37768    1
 29493 37769 37770    1
 29494 37769 37771    1
 29495 37772 37773    1
 29496 37772 37774    1
 29497 37775 37776    1
 29498 37775 37777    1
 29499 37778 37779    1
 29500 37778 37780    1
 29501 37781 37782    1
 29502 37781 37783    1
 29503 37784 37785    1
 29504 37784 37786    1
 29505 37787 37788    1
 29506 37787 37789    1
 29507 37790 37791    1
 29508 37790 37792    1
 29509 37793 37794    1
 29510 37793 37795    1
 29511 37796 37797    1
 29512 37796 37798    1
 29513 37799 37800    1
 29514 37799 37801    1
 29515 37802 37803    1
 29516 37802 37804    1
 29517 37805 37806    1
 29518 37805 37807    1
 29519 37808 37809    1
 29520 37808 37810    1
 29521 37811 37812    1
 29522 37811 37813    1
 29523 37814 37815    1
 29524 37814 37816    1
 29525 37817 37818    1
 29526 37817 37819    1
 29527 37820 37821    1
 29528 37820 37822    1
 29529 37823 37824    1
 29530 37823 37825    1
 29531 37826 37827    1
 29532 37826 37828    1
 29533 37829 37830    1
 29534 37829 37831    1
 29535 37832 37833    1
 29536 37832 37834    1
 29537 37835 37836    1
 29538 37835 37837    1
 29539 37838 37839    1
 29540 37838 37840    1
 29541 37841 37842    1
 29542 37841 37843    1
 29543 37844 37845    1
 29544 37844 37846    1
 29545 37847 37848    1
 29546 37847 37849    1
 29547 37850 37851    1
 29548 37850 37852    1
 29549 37853 37854    1
 29550 37853 37855    1
 29551 37856 37857    1
 29552 37856 37858    1
 29553 37859 37860    1
 29554 37859 37861    1
 29555 37862 37863    1
 29556 37862 37864    1
 29557 37865 37866    1
 29558 37865 37867    1
 29559 37868 37869    1
 29560 37868 37870    1
 29561 37871 37872    1
 29562 37871 37873    1
 29563 37874 37875    1
 29564 37874 37876    1
 29565 37877 37878    1
 29566 37877 37879    1
 29567 37880 37881    1
 29568 37880 37882    1
 29569 37883 37884    1
 29570 37883 37885    1
 29571 37886 37887    1
 29572 37886 37888    1
 29573 37889 37890    1
 29574 37889 37891    1
 29575 37892 37893    1
 29576 37892 37894    1
 29577 37895 37896    1
 29578 37895 37897    1
 29579 37898 37899    1
 29580 37898 37900    1
 29581 37901 37902    1
 29582 37901 37903    1
 29583 37904 37905    1
 29584 37904 37906    1
 29585 37907 37908    1
 29586 37907 37909    1
 29587 37910 37911    1
 29588 37910 37912    1
 29589 37913 37914    1
 29590 37913 37915    1
 29591 37916 37917    1
 29592 37916 37918    1
 29593 37919 37920    1
 29594 37919 37921    1
 29595 37922 37923    1
 29596 37922 37924    1
 29597 37925 37926    1
 29598 37925 37927    1
 29599 37928 37929    1
 29600 37928 37930    1
 29601 37931 37932    1
 29602 37931 37933    1
 29603 37934 37935    1
 29604 37934 37936    1
 29605 37937 37938    1
 29606 37937 37939    1
 29607 37940 37941    1
 29608 37940 37942    1
 29609 37943 37944    1
 29610 37943 37945    1
 29611 37946 37947    1
 29612 37946 37948    1
 29613 37949 37950    1
 29614 37949 37951    1
 29615 37952 37953    1
 29616 37952 37954    1
 29617 37955 37956    1
 29618 37955 37957    1
 29619 37958 37959    1
 29620 37958 37960    1
 29621 37961 37962    1
 29622 37961 37963    1
 29623 37964 37965    1
 29624 37964 37966    1
 29625 37967 37968    1
 29626 37967 37969    1
 29627 37970 37971    1
 29628 37970 37972    1
 29629 37973 37974    1
 29630 37973 37975    1
 29631 37976 37977    1
 29632 37976 37978    1
 29633 37979 37980    1
 29634 37979 37981    1
 29635 37982 37983    1
 29636 37982 37984    1
 29637 37985 37986    1
 29638 37985 37987    1
 29639 37988 37989    1
 29640 37988 37990    1
 29641 37991 37992    1
 29642 37991 37993    1
 29643 37994 37995    1
 29644 37994 37996    1
 29645 37997 37998    1
 29646 37997 37999    1
 29647 38000 38001    1
 29648 38000 38002    1
 29649 38003 38004    1
 29650 38003 38005    1
 29651 38006 38007    1
 29652 38006 38008    1
 29653 38009 38010    1
 29654 38009 38011    1
 29655 38012 38013    1
 29656 38012 38014    1
 29657 38015 38016    1
 29658 38015 38017    1
 29659 38018 38019    1
 29660 38018 38020    1
 29661 38021 38022    1
 29662 38021 38023    1
 29663 38024 38025    1
 29664 38024 38026    1
 29665 38027 38028    1
 29666 38027 38029    1
 29667 38030 38031    1
 29668 38030 38032    1
 29669 38033 38034    1
 29670 38033 38035    1
 29671 38036 38037    1
 29672 38036 38038    1
 29673 38039 38040    1
 29674 38039 38041    1
 29675 38042 38043    1
 29676 38042 38044    1
 29677 38045 38046    1
 29678 38045 38047    1
 29679 38048 38049    1
 29680 38048 38050    1
 29681 38051 38052    1
 29682 38051 38053    1
 29683 38054 38055    1
 29684 38054 38056    1
 29685 38057 38058    1
 29686 38057 38059    1
 29687 38060 38061    1
 29688 38060 38062    1
 29689 38063 38064    1
 29690 38063 38065    1
 29691 38066 38067    1
 29692 38066 38068    1
 29693 38069 38070    1
 29694 38069 38071    1
 29695 38072 38073    1
 29696 38072 38074    1
 29697 38075 38076    1
 29698 38075 38077    1
 29699 38078 38079    1
 29700 38078 38080    1
 29701 38081 38082    1
 29702 38081 38083    1
 29703 38084 38085    1
 29704 38084 38086    1
 29705 38087 38088    1
 29706 38087 38089    1
 29707 38090 38091    1
 29708 38090 38092    1
 29709 38093 38094    1
 29710 38093 38095    1
 29711 38096 38097    1
 29712 38096 38098    1
 29713 38099 38100    1
 29714 38099 38101    1
 29715 38102 38103    1
 29716 38102 38104    1
 29717 38105 38106    1
 29718 38105 38107    1
 29719 38108 38109    1
 29720 38108 38110    1
 29721 38111 38112    1
 29722 38111 38113    1
 29723 38114 38115    1
 29724 38114 38116    1
 29725 38117 38118    1
 29726 38117 38119    1
 29727 38120 38121    1
 29728 38120 38122    1
 29729 38123 38124    1
 29730 38123 38125    1
 29731 38126 38127    1
 29732 38126 38128    1
 29733 38129 38130    1
 29734 38129 38131    1
 29735 38132 38133    1
 29736 38132 38134    1
 29737 38135 38136    1
 29738 38135 38137    1
 29739 38138 38139    1
 29740 38138 38140    1
 29741 38141 38142    1
 29742 38141 38143    1
 29743 38144 38145    1
 29744 38144 38146    1
 29745 38147 38148    1
 29746 38147 38149    1
 29747 38150 38151    1
 29748 38150 38152    1
 29749 38153 38154    1
 29750 38153 38155    1
 29751 38156 38157    1
 29752 38156 38158    1
 29753 38159 38160    1
 29754 38159 38161    1
 29755 38162 38163    1
 29756 38162 38164    1
 29757 38165 38166    1
 29758 38165 38167    1
 29759 38168 38169    1
 29760 38168 38170    1
 29761 38171 38172    1
 29762 38171 38173    1
 29763 38174 38175    1
 29764 38174 38176    1
 29765 38177 38178    1
 29766 38177 38179    1
 29767 38180 38181    1
 29768 38180 38182    1
 29769 38183 38184    1
 29770 38183 38185    1
 29771 38186 38187    1
 29772 38186 38188    1
 29773 38189 38190    1
 29774 38189 38191    1
 29775 38192 38193    1
 29776 38192 38194    1
 29777 38195 38196    1
 29778 38195 38197    1
 29779 38198 38199    1
 29780 38198 38200    1
 29781 38201 38202    1
 29782 38201 38203    1
 29783 38204 38205    1
 29784 38204 38206    1
 29785 38207 38208    1
 29786 38207 38209    1
 29787 38210 38211    1
 29788 38210 38212    1
 29789 38213 38214    1
 29790 38213 38215    1
 29791 38216 38217    1
 29792 38216 38218    1
 29793 38219 38220    1
 29794 38219 38221    1
 29795 38222 38223    1
 29796 38222 38224    1
 29797 38225 38226    1
 29798 38225 38227    1
 29799 38228 38229    1
 29800 38228 38230    1
 29801 38231 38232    1
 29802 38231 38233    1
 29803 38234 38235    1
 29804 38234 38236    1
 29805 38237 38238    1
 29806 38237 38239    1
 29807 38240 38241    1
 29808 38240 38242    1
 29809 38243 38244    1
 29810 38243 38245    1
 29811 38246 38247    1
 29812 38246 38248    1
 29813 38249 38250    1
 29814 38249 38251    1
 29815 38252 38253    1
 29816 38252 38254    1
 29817 38255 38256    1
 29818 38255 38257    1
 29819 38258 38259    1
 29820 38258 38260    1
 29821 38261 38262    1
 29822 38261 38263    1
 29823 38264 38265    1
 29824 38264 38266    1
 29825 38267 38268    1
 29826 38267 38269    1
 29827 38270 38271    1
 29828 38270 38272    1
 29829 38273 38274    1
 29830 38273 38275    1
 29831 38276 38277    1
 29832 38276 38278    1
 29833 38279 38280    1
 29834 38279 38281    1
 29835 38282 38283    1
 29836 38282 38284    1
 29837 38285 38286    1
 29838 38285 38287    1
 29839 38288 38289    1
 29840 38288 38290    1
 29841 38291 38292    1
 29842 38291 38293    1
 29843 38294 38295    1
 29844 38294 38296    1
 29845 38297 38298    1
 29846 38297 38299    1
 29847 38300 38301    1
 29848 38300 38302    1
 29849 38303 38304    1
 29850 38303 38305    1
 29851 38306 38307    1
 29852 38306 38308    1
 29853 38309 38310    1
 29854 38309 38311    1
 29855 38312 38313    1
 29856 38312 38314    1
 29857 38315 38316    1
 29858 38315 38317    1
 29859 38318 38319    1
 29860 38318 38320    1
 29861 38321 38322    1
 29862 38321 38323    1
 29863 38324 38325    1
 29864 38324 38326    1
 29865 38327 38328    1
 29866 38327 38329    1
 29867 38330 38331    1
 29868 38330 38332    1
 29869 38333 38334    1
 29870 38333 38335    1
 29871 38336 38337    1
 29872 38336 38338    1
 29873 38339 38340    1
 29874 38339 38341    1
 29875 38342 38343    1
 29876 38342 38344    1
 29877 38345 38346    1
 29878 38345 38347    1
 29879 38348 38349    1
 29880 38348 38350    1
 29881 38351 38352    1
 29882 38351 38353    1
 29883 38354 38355    1
 29884 38354 38356    1
 29885 38357 38358    1
 29886 38357 38359    1
 29887 38360 38361    1
 29888 38360 38362    1
 29889 38363 38364    1
 29890 38363 38365    1
 29891 38366 38367    1
 29892 38366 38368    1
 29893 38369 38370    1
 29894 38369 38371    1
 29895 38372 38373    1
 29896 38372 38374    1
 29897 38375 38376    1
 29898 38375 38377    1
 29899 38378 38379    1
 29900 38378 38380    1
 29901 38381 38382    1
 29902 38381 38383    1
 29903 38384 38385    1
 29904 38384 38386    1
 29905 38387 38388    1
 29906 38387 38389    1
 29907 38390 38391    1
 29908 38390 38392    1
 29909 38393 38394    1
 29910 38393 38395    1
 29911 38396 38397    1
 29912 38396 38398    1
 29913 38399 38400    1
 29914 38399 38401    1
 29915 38402 38403    1
 29916 38402 38404    1
 29917 38405 38406    1
 29918 38405 38407    1
 29919 38408 38409    1
 29920 38408 38410    1
 29921 38411 38412    1
 29922 38411 38413    1
 29923 38414 38415    1
 29924 38414 38416    1
 29925 38417 38418    1
 29926 38417 38419    1
 29927 38420 38421    1
 29928 38420 38422    1
 29929 38423 38424    1
 29930 38423 38425    1
 29931 38426 38427    1
 29932 38426 38428    1
 29933 38429 38430    1
 29934 38429 38431    1
 29935 38432 38433    1
 29936 38432 38434    1
 29937 38435 38436    1
 29938 38435 38437    1
 29939 38438 38439    1
 29940 38438 38440    1
 29941 38441 38442    1
 29942 38441 38443    1
 29943 38444 38445    1
 29944 38444 38446    1
 29945 38447 38448    1
 29946 38447 38449    1
 29947 38450 38451    1
 29948 38450 38452    1
 29949 38453 38454    1
 29950 38453 38455    1
 29951 38456 38457    1
 29952 38456 38458    1
 29953 38459 38460    1
 29954 38459 38461    1
 29955 38462 38463    1
 29956 38462 38464    1
 29957 38465 38466    1
 29958 38465 38467    1
 29959 38468 38469    1
 29960 38468 38470    1
 29961 38471 38472    1
 29962 38471 38473    1
 29963 38474 38475    1
 29964 38474 38476    1
 29965 38477 38478    1
 29966 38477 38479    1
 29967 38480 38481    1
 29968 38480 38482    1
 29969 38483 38484    1
 29970 38483 38485    1
 29971 38486 38487    1
 29972 38486 38488    1
 29973 38489 38490    1
 29974 38489 38491    1
 29975 38492 38493    1
 29976 38492 38494    1
 29977 38495 38496    1
 29978 38495 38497    1
 29979 38498 38499    1
 29980 38498 38500    1
 29981 38501 38502    1
 29982 38501 38503    1
 29983 38504 38505    1
 29984 38504 38506    1
 29985 38507 38508    1
 29986 38507 38509    1
 29987 38510 38511    1
 29988 38510 38512    1
 29989 38513 38514    1
 29990 38513 38515    1
 29991 38516 38517    1
 29992 38516 38518    1
 29993 38519 38520    1
 29994 38519 38521    1
 29995 38522 38523    1
 29996 38522 38524    1
 29997 38525 38526    1
 29998 38525 38527    1
 29999 38528 38529    1
 30000 38528 38530    1
 30001 38531 38532    1
 30002 38531 38533    1
 30003 38534 38535    1
 30004 38534 38536    1
 30005 38537 38538    1
 30006 38537 38539    1
 30007 38540 38541    1
 30008 38540 38542    1
 30009 38543 38544    1
 30010 38543 38545    1
 30011 38546 38547    1
 30012 38546 38548    1
 30013 38549 38550    1
 30014 38549 38551    1
 30015 38552 38553    1
 30016 38552 38554    1
 30017 38555 38556    1
 30018 38555 38557    1
 30019 38558 38559    1
 30020 38558 38560    1
 30021 38561 38562    1
 30022 38561 38563    1
 30023 38564 38565    1
 30024 38564 38566    1
 30025 38567 38568    1
 30026 38567 38569    1
 30027 38570 38571    1
 30028 38570 38572    1
 30029 38573 38574    1
 30030 38573 38575    1
 30031 38576 38577    1
 30032 38576 38578    1
 30033 38579 38580    1
 30034 38579 38581    1
 30035 38582 38583    1
 30036 38582 38584    1
 30037 38585 38586    1
 30038 38585 38587    1
 30039 38588 38589    1
 30040 38588 38590    1
 30041 38591 38592    1
 30042 38591 38593    1
 30043 38594 38595    1
 30044 38594 38596    1
 30045 38597 38598    1
 30046 38597 38599    1
 30047 38600 38601    1
 30048 38600 38602    1
 30049 38603 38604    1
 30050 38603 38605    1
 30051 38606 38607    1
 30052 38606 38608    1
 30053 38609 38610    1
 30054 38609 38611    1
 30055 38612 38613    1
 30056 38612 38614    1
 30057 38615 38616    1
 30058 38615 38617    1
 30059 38618 38619    1
 30060 38618 38620    1
 30061 38621 38622    1
 30062 38621 38623    1
 30063 38624 38625    1
 30064 38624 38626    1
 30065 38627 38628    1
 30066 38627 38629    1
 30067 38630 38631    1
 30068 38630 38632    1
 30069 38633 38634    1
 30070 38633 38635    1
 30071 38636 38637    1
 30072 38636 38638    1
 30073 38639 38640    1
 30074 38639 38641    1
 30075 38642 38643    1
 30076 38642 38644    1
 30077 38645 38646    1
 30078 38645 38647    1
 30079 38648 38649    1
 30080 38648 38650    1
 30081 38651 38652    1
 30082 38651 38653    1
 30083 38654 38655    1
 30084 38654 38656    1
 30085 38657 38658    1
 30086 38657 38659    1
 30087 38660 38661    1
 30088 38660 38662    1
 30089 38663 38664    1
 30090 38663 38665    1
 30091 38666 38667    1
 30092 38666 38668    1
 30093 38669 38670    1
 30094 38669 38671    1
 30095 38672 38673    1
 30096 38672 38674    1
 30097 38675 38676    1
 30098 38675 38677    1
 30099 38678 38679    1
 30100 38678 38680    1
 30101 38681 38682    1
 30102 38681 38683    1
 30103 38684 38685    1
 30104 38684 38686    1
 30105 38687 38688    1
 30106 38687 38689    1
 30107 38690 38691    1
 30108 38690 38692    1
 30109 38693 38694    1
 30110 38693 38695    1
 30111 38696 38697    1
 30112 38696 38698    1
 30113 38699 38700    1
 30114 38699 38701    1
 30115 38702 38703    1
 30116 38702 38704    1
 30117 38705 38706    1
 30118 38705 38707    1
 30119 38708 38709    1
 30120 38708 38710    1
 30121 38711 38712    1
 30122 38711 38713    1
 30123 38714 38715    1
 30124 38714 38716    1
 30125 38717 38718    1
 30126 38717 38719    1
 30127 38720 38721    1
 30128 38720 38722    1
 30129 38723 38724    1
 30130 38723 38725    1
 30131 38726 38727    1
 30132 38726 38728    1
 30133 38729 38730    1
 30134 38729 38731    1
 30135 38732 38733    1
 30136 38732 38734    1
 30137 38735 38736    1
 30138 38735 38737    1
 30139 38738 38739    1
 30140 38738 38740    1
 30141 38741 38742    1
 30142 38741 38743    1
 30143 38744 38745    1
 30144 38744 38746    1
 30145 38747 38748    1
 30146 38747 38749    1
 30147 38750 38751    1
 30148 38750 38752    1
 30149 38753 38754    1
 30150 38753 38755    1
 30151 38756 38757    1
 30152 38756 38758    1
 30153 38759 38760    1
 30154 38759 38761    1
 30155 38762 38763    1
 30156 38762 38764    1
 30157 38765 38766    1
 30158 38765 38767    1
 30159 38768 38769    1
 30160 38768 38770    1
 30161 38771 38772    1
 30162 38771 38773    1
 30163 38774 38775    1
 30164 38774 38776    1
 30165 38777 38778    1
 30166 38777 38779    1
 30167 38780 38781    1
 30168 38780 38782    1
 30169 38783 38784    1
 30170 38783 38785    1
 30171 38786 38787    1
 30172 38786 38788    1
 30173 38789 38790    1
 30174 38789 38791    1
 30175 38792 38793    1
 30176 38792 38794    1
 30177 38795 38796    1
 30178 38795 38797    1
 30179 38798 38799    1
 30180 38798 38800    1
 30181 38801 38802    1
 30182 38801 38803    1
 30183 38804 38805    1
 30184 38804 38806    1
 30185 38807 38808    1
 30186 38807 38809    1
 30187 38810 38811    1
 30188 38810 38812    1
 30189 38813 38814    1
 30190 38813 38815    1
 30191 38816 38817    1
 30192 38816 38818    1
 30193 38819 38820    1
 30194 38819 38821    1
 30195 38822 38823    1
 30196 38822 38824    1
 30197 38825 38826    1
 30198 38825 38827    1
 30199 38828 38829    1
 30200 38828 38830    1
 30201 38831 38832    1
 30202 38831 38833    1
 30203 38834 38835    1
 30204 38834 38836    1
 30205 38837 38838    1
 30206 38837 38839    1
 30207 38840 38841    1
 30208 38840 38842    1
 30209 38843 38844    1
 30210 38843 38845    1
 30211 38846 38847    1
 30212 38846 38848    1
 30213 38849 38850    1
 30214 38849 38851    1
 30215 38852 38853    1
 30216 38852 38854    1
 30217 38855 38856    1
 30218 38855 38857    1
 30219 38858 38859    1
 30220 38858 38860    1
 30221 38861 38862    1
 30222 38861 38863    1
 30223 38864 38865    1
 30224 38864 38866    1
 30225 38867 38868    1
 30226 38867 38869    1
 30227 38870 38871    1
 30228 38870 38872    1
 30229 38873 38874    1
 30230 38873 38875    1
 30231 38876 38877    1
 30232 38876 38878    1
 30233 38879 38880    1
 30234 38879 38881    1
 30235 38882 38883    1
 30236 38882 38884    1
 30237 38885 38886    1
 30238 38885 38887    1
 30239 38888 38889    1
 30240 38888 38890    1
 30241 38891 38892    1
 30242 38891 38893    1
 30243 38894 38895    1
 30244 38894 38896    1
 30245 38897 38898    1
 30246 38897 38899    1
 30247 38900 38901    1
 30248 38900 38902    1
 30249 38903 38904    1
 30250 38903 38905    1
 30251 38906 38907    1
 30252 38906 38908    1
 30253 38909 38910    1
 30254 38909 38911    1
 30255 38912 38913    1
 30256 38912 38914    1
 30257 38915 38916    1
 30258 38915 38917    1
 30259 38918 38919    1
 30260 38918 38920    1
 30261 38921 38922    1
 30262 38921 38923    1
 30263 38924 38925    1
 30264 38924 38926    1
 30265 38927 38928    1
 30266 38927 38929    1
 30267 38930 38931    1
 30268 38930 38932    1
 30269 38933 38934    1
 30270 38933 38935    1
 30271 38936 38937    1
 30272 38936 38938    1
 30273 38939 38940    1
 30274 38939 38941    1
 30275 38942 38943    1
 30276 38942 38944    1
 30277 38945 38946    1
 30278 38945 38947    1
 30279 38948 38949    1
 30280 38948 38950    1
 30281 38951 38952    1
 30282 38951 38953    1
 30283 38954 38955    1
 30284 38954 38956    1
 30285 38957 38958    1
 30286 38957 38959    1
 30287 38960 38961    1
 30288 38960 38962    1
 30289 38963 38964    1
 30290 38963 38965    1
 30291 38966 38967    1
 30292 38966 38968    1
 30293 38969 38970    1
 30294 38969 38971    1
 30295 38972 38973    1
 30296 38972 38974    1
 30297 38975 38976    1
 30298 38975 38977    1
 30299 38978 38979    1
 30300 38978 38980    1
 30301 38981 38982    1
 30302 38981 38983    1
 30303 38984 38985    1
 30304 38984 38986    1
 30305 38987 38988    1
 30306 38987 38989    1
 30307 38990 38991    1
 30308 38990 38992    1
 30309 38993 38994    1
 30310 38993 38995    1
 30311 38996 38997    1
 30312 38996 38998    1
 30313 38999 39000    1
 30314 38999 39001    1
 30315 39002 39003    1
 30316 39002 39004    1
 30317 39005 39006    1
 30318 39005 39007    1
 30319 39008 39009    1
 30320 39008 39010    1
 30321 39011 39012    1
 30322 39011 39013    1
 30323 39014 39015    1
 30324 39014 39016    1
 30325 39017 39018    1
 30326 39017 39019    1
 30327 39020 39021    1
 30328 39020 39022    1
 30329 39023 39024    1
 30330 39023 39025    1
 30331 39026 39027    1
 30332 39026 39028    1
 30333 39029 39030    1
 30334 39029 39031    1
 30335 39032 39033    1
 30336 39032 39034    1
 30337 39035 39036    1
 30338 39035 39037    1
 30339 39038 39039    1
 30340 39038 39040    1
 30341 39041 39042    1
 30342 39041 39043    1
 30343 39044 39045    1
 30344 39044 39046    1
 30345 39047 39048    1
 30346 39047 39049    1
 30347 39050 39051    1
 30348 39050 39052    1
 30349 39053 39054    1
 30350 39053 39055    1
 30351 39056 39057    1
 30352 39056 39058    1
 30353 39059 39060    1
 30354 39059 39061    1
 30355 39062 39063    1
 30356 39062 39064    1
 30357 39065 39066    1
 30358 39065 39067    1
 30359 39068 39069    1
 30360 39068 39070    1
 30361 39071 39072    1
 30362 39071 39073    1
 30363 39074 39075    1
 30364 39074 39076    1
 30365 39077 39078    1
 30366 39077 39079    1
 30367 39080 39081    1
 30368 39080 39082    1
 30369 39083 39084    1
 30370 39083 39085    1
 30371 39086 39087    1
 30372 39086 39088    1
 30373 39089 39090    1
 30374 39089 39091    1
 30375 39092 39093    1
 30376 39092 39094    1
 30377 39095 39096    1
 30378 39095 39097    1
 30379 39098 39099    1
 30380 39098 39100    1
 30381 39101 39102    1
 30382 39101 39103    1
 30383 39104 39105    1
 30384 39104 39106    1
 30385 39107 39108    1
 30386 39107 39109    1
 30387 39110 39111    1
 30388 39110 39112    1
 30389 39113 39114    1
 30390 39113 39115    1
 30391 39116 39117    1
 30392 39116 39118    1
 30393 39119 39120    1
 30394 39119 39121    1
 30395 39122 39123    1
 30396 39122 39124    1
 30397 39125 39126    1
 30398 39125 39127    1
 30399 39128 39129    1
 30400 39128 39130    1
 30401 39131 39132    1
 30402 39131 39133    1
 30403 39134 39135    1
 30404 39134 39136    1
 30405 39137 39138    1
 30406 39137 39139    1
 30407 39140 39141    1
 30408 39140 39142    1
 30409 39143 39144    1
 30410 39143 39145    1
 30411 39146 39147    1
 30412 39146 39148    1
 30413 39149 39150    1
 30414 39149 39151    1
 30415 39152 39153    1
 30416 39152 39154    1
 30417 39155 39156    1
 30418 39155 39157    1
 30419 39158 39159    1
 30420 39158 39160    1
 30421 39161 39162    1
 30422 39161 39163    1
 30423 39164 39165    1
 30424 39164 39166    1
 30425 39167 39168    1
 30426 39167 39169    1
 30427 39170 39171    1
 30428 39170 39172    1
 30429 39173 39174    1
 30430 39173 39175    1
 30431 39176 39177    1
 30432 39176 39178    1
 30433 39179 39180    1
 30434 39179 39181    1
 30435 39182 39183    1
 30436 39182 39184    1
 30437 39185 39186    1
 30438 39185 39187    1
 30439 39188 39189    1
 30440 39188 39190    1
 30441 39191 39192    1
 30442 39191 39193    1
 30443 39194 39195    1
 30444 39194 39196    1
 30445 39197 39198    1
 30446 39197 39199    1
 30447 39200 39201    1
 30448 39200 39202    1
 30449 39203 39204    1
 30450 39203 39205    1
 30451 39206 39207    1
 30452 39206 39208    1
 30453 39209 39210    1
 30454 39209 39211    1
 30455 39212 39213    1
 30456 39212 39214    1
 30457 39215 39216    1
 30458 39215 39217    1
 30459 39218 39219    1
 30460 39218 39220    1
 30461 39221 39222    1
 30462 39221 39223    1
 30463 39224 39225    1
 30464 39224 39226    1
 30465 39227 39228    1
 30466 39227 39229    1
 30467 39230 39231    1
 30468 39230 39232    1
 30469 39233 39234    1
 30470 39233 39235    1
 30471 39236 39237    1
 30472 39236 39238    1
 30473 39239 39240    1
 30474 39239 39241    1
 30475 39242 39243    1
 30476 39242 39244    1
 30477 39245 39246    1
 30478 39245 39247    1
 30479 39248 39249    1
 30480 39248 39250    1
 30481 39251 39252    1
 30482 39251 39253    1
 30483 39254 39255    1
 30484 39254 39256    1
 30485 39257 39258    1
 30486 39257 39259    1
 30487 39260 39261    1
 30488 39260 39262    1
 30489 39263 39264    1
 30490 39263 39265    1
 30491 39266 39267    1
 30492 39266 39268    1
 30493 39269 39270    1
 30494 39269 39271    1
 30495 39272 39273    1
 30496 39272 39274    1
 30497 39275 39276    1
 30498 39275 39277    1
 30499 39278 39279    1
 30500 39278 39280    1
 30501 39281 39282    1
 30502 39281 39283    1
 30503 39284 39285    1
 30504 39284 39286    1
 30505 39287 39288    1
 30506 39287 39289    1
 30507 39290 39291    1
 30508 39290 39292    1
 30509 39293 39294    1
 30510 39293 39295    1
 30511 39296 39297    1
 30512 39296 39298    1
 30513 39299 39300    1
 30514 39299 39301    1
 30515 39302 39303    1
 30516 39302 39304    1
 30517 39305 39306    1
 30518 39305 39307    1
 30519 39308 39309    1
 30520 39308 39310    1
 30521 39311 39312    1
 30522 39311 39313    1
 30523 39314 39315    1
 30524 39314 39316    1
 30525 39317 39318    1
 30526 39317 39319    1
 30527 39320 39321    1
 30528 39320 39322    1
 30529 39323 39324    1
 30530 39323 39325    1
 30531 39326 39327    1
 30532 39326 39328    1
 30533 39329 39330    1
 30534 39329 39331    1
 30535 39332 39333    1
 30536 39332 39334    1
 30537 39335 39336    1
 30538 39335 39337    1
 30539 39338 39339    1
 30540 39338 39340    1
 30541 39341 39342    1
 30542 39341 39343    1
 30543 39344 39345    1
 30544 39344 39346    1
 30545 39347 39348    1
 30546 39347 39349    1
 30547 39350 39351    1
 30548 39350 39352    1
 30549 39353 39354    1
 30550 39353 39355    1
 30551 39356 39357    1
 30552 39356 39358    1
 30553 39359 39360    1
 30554 39359 39361    1
 30555 39362 39363    1
 30556 39362 39364    1
 30557 39365 39366    1
 30558 39365 39367    1
 30559 39368 39369    1
 30560 39368 39370    1
 30561 39371 39372    1
 30562 39371 39373    1
 30563 39374 39375    1
 30564 39374 39376    1
 30565 39377 39378    1
 30566 39377 39379    1
 30567 39380 39381    1
 30568 39380 39382    1
 30569 39383 39384    1
 30570 39383 39385    1
 30571 39386 39387    1
 30572 39386 39388    1
 30573 39389 39390    1
 30574 39389 39391    1
 30575 39392 39393    1
 30576 39392 39394    1
 30577 39395 39396    1
 30578 39395 39397    1
 30579 39398 39399    1
 30580 39398 39400    1
 30581 39401 39402    1
 30582 39401 39403    1
 30583 39404 39405    1
 30584 39404 39406    1
 30585 39407 39408    1
 30586 39407 39409    1
 30587 39410 39411    1
 30588 39410 39412    1
 30589 39413 39414    1
 30590 39413 39415    1
 30591 39416 39417    1
 30592 39416 39418    1
 30593 39419 39420    1
 30594 39419 39421    1
 30595 39422 39423    1
 30596 39422 39424    1
 30597 39425 39426    1
 30598 39425 39427    1
 30599 39428 39429    1
 30600 39428 39430    1
 30601 39431 39432    1
 30602 39431 39433    1
 30603 39434 39435    1
 30604 39434 39436    1
 30605 39437 39438    1
 30606 39437 39439    1
 30607 39440 39441    1
 30608 39440 39442    1
 30609 39443 39444    1
 30610 39443 39445    1
 30611 39446 39447    1
 30612 39446 39448    1
 30613 39449 39450    1
 30614 39449 39451    1
 30615 39452 39453    1
 30616 39452 39454    1
 30617 39455 39456    1
 30618 39455 39457    1
 30619 39458 39459    1
 30620 39458 39460    1
 30621 39461 39462    1
 30622 39461 39463    1
 30623 39464 39465    1
 30624 39464 39466    1
 30625 39467 39468    1
 30626 39467 39469    1
 30627 39470 39471    1
 30628 39470 39472    1
 30629 39473 39474    1
 30630 39473 39475    1
 30631 39476 39477    1
 30632 39476 39478    1
 30633 39479 39480    1
 30634 39479 39481    1
 30635 39482 39483    1
 30636 39482 39484    1
 30637 39485 39486    1
 30638 39485 39487    1
 30639 39488 39489    1
 30640 39488 39490    1
 30641 39491 39492    1
 30642 39491 39493    1
 30643 39494 39495    1
 30644 39494 39496    1
 30645 39497 39498    1
 30646 39497 39499    1
 30647 39500 39501    1
 30648 39500 39502    1
 30649 39503 39504    1
 30650 39503 39505    1
 30651 39506 39507    1
 30652 39506 39508    1
 30653 39509 39510    1
 30654 39509 39511    1
 30655 39512 39513    1
 30656 39512 39514    1
 30657 39515 39516    1
 30658 39515 39517    1
 30659 39518 39519    1
 30660 39518 39520    1
 30661 39521 39522    1
 30662 39521 39523    1
 30663 39524 39525    1
 30664 39524 39526    1
 30665 39527 39528    1
 30666 39527 39529    1
 30667 39530 39531    1
 30668 39530 39532    1
 30669 39533 39534    1
 30670 39533 39535    1
 30671 39536 39537    1
 30672 39536 39538    1
 30673 39539 39540    1
 30674 39539 39541    1
 30675 39542 39543    1
 30676 39542 39544    1
 30677 39545 39546    1
 30678 39545 39547    1
 30679 39548 39549    1
 30680 39548 39550    1
 30681 39551 39552    1
 30682 39551 39553    1
 30683 39554 39555    1
 30684 39554 39556    1
 30685 39557 39558    1
 30686 39557 39559    1
 30687 39560 39561    1
 30688 39560 39562    1
 30689 39563 39564    1
 30690 39563 39565    1
 30691 39566 39567    1
 30692 39566 39568    1
 30693 39569 39570    1
 30694 39569 39571    1
 30695 39572 39573    1
 30696 39572 39574    1
 30697 39575 39576    1
 30698 39575 39577    1
 30699 39578 39579    1
 30700 39578 39580    1
 30701 39581 39582    1
 30702 39581 39583    1
 30703 39584 39585    1
 30704 39584 39586    1
 30705 39587 39588    1
 30706 39587 39589    1
 30707 39590 39591    1
 30708 39590 39592    1
 30709 39593 39594    1
 30710 39593 39595    1
 30711 39596 39597    1
 30712 39596 39598    1
 30713 39599 39600    1
 30714 39599 39601    1
 30715 39602 39603    1
 30716 39602 39604    1
 30717 39605 39606    1
 30718 39605 39607    1
 30719 39608 39609    1
 30720 39608 39610    1
 30721 39611 39612    1
 30722 39611 39613    1
 30723 39614 39615    1
 30724 39614 39616    1
 30725 39617 39618    1
 30726 39617 39619    1
 30727 39620 39621    1
 30728 39620 39622    1
 30729 39623 39624    1
 30730 39623 39625    1
 30731 39626 39627    1
 30732 39626 39628    1
 30733 39629 39630    1
 30734 39629 39631    1
 30735 39632 39633    1
 30736 39632 39634    1
 30737 39635 39636    1
 30738 39635 39637    1
 30739 39638 39639    1
 30740 39638 39640    1
 30741 39641 39642    1
 30742 39641 39643    1
 30743 39644 39645    1
 30744 39644 39646    1
 30745 39647 39648    1
 30746 39647 39649    1
 30747 39650 39651    1
 30748 39650 39652    1
 30749 39653 39654    1
 30750 39653 39655    1
 30751 39656 39657    1
 30752 39656 39658    1
 30753 39659 39660    1
 30754 39659 39661    1
 30755 39662 39663    1
 30756 39662 39664    1
 30757 39665 39666    1
 30758 39665 39667    1
 30759 39668 39669    1
 30760 39668 39670    1
 30761 39671 39672    1
 30762 39671 39673    1
 30763 39674 39675    1
 30764 39674 39676    1
 30765 39677 39678    1
 30766 39677 39679    1
 30767 39680 39681    1
 30768 39680 39682    1
 30769 39683 39684    1
 30770 39683 39685    1
 30771 39686 39687    1
 30772 39686 39688    1
 30773 39689 39690    1
 30774 39689 39691    1
 30775 39692 39693    1
 30776 39692 39694    1
 30777 39695 39696    1
 30778 39695 39697    1
 30779 39698 39699    1
 30780 39698 39700    1
 30781 39701 39702    1
 30782 39701 39703    1
 30783 39704 39705    1
 30784 39704 39706    1
 30785 39707 39708    1
 30786 39707 39709    1
 30787 39710 39711    1
 30788 39710 39712    1
 30789 39713 39714    1
 30790 39713 39715    1
 30791 39716 39717    1
 30792 39716 39718    1
 30793 39719 39720    1
 30794 39719 39721    1
 30795 39722 39723    1
 30796 39722 39724    1
 30797 39725 39726    1
 30798 39725 39727    1
 30799 39728 39729    1
 30800 39728 39730    1
 30801 39731 39732    1
 30802 39731 39733    1
 30803 39734 39735    1
 30804 39734 39736    1
 30805 39737 39738    1
 30806 39737 39739    1
 30807 39740 39741    1
 30808 39740 39742    1
 30809 39743 39744    1
 30810 39743 39745    1
 30811 39746 39747    1
 30812 39746 39748    1
 30813 39749 39750    1
 30814 39749 39751    1
 30815 39752 39753    1
 30816 39752 39754    1
 30817 39755 39756    1
 30818 39755 39757    1
 30819 39758 39759    1
 30820 39758 39760    1
 30821 39761 39762    1
 30822 39761 39763    1
 30823 39764 39765    1
 30824 39764 39766    1
 30825 39767 39768    1
 30826 39767 39769    1
 30827 39770 39771    1
 30828 39770 39772    1
 30829 39773 39774    1
 30830 39773 39775    1
 30831 39776 39777    1
 30832 39776 39778    1
 30833 39779 39780    1
 30834 39779 39781    1
 30835 39782 39783    1
 30836 39782 39784    1
 30837 39785 39786    1
 30838 39785 39787    1
 30839 39788 39789    1
 30840 39788 39790    1
 30841 39791 39792    1
 30842 39791 39793    1
 30843 39794 39795    1
 30844 39794 39796    1
 30845 39797 39798    1
 30846 39797 39799    1
 30847 39800 39801    1
 30848 39800 39802    1
 30849 39803 39804    1
 30850 39803 39805    1
 30851 39806 39807    1
 30852 39806 39808    1
 30853 39809 39810    1
 30854 39809 39811    1
 30855 39812 39813    1
 30856 39812 39814    1
 30857 39815 39816    1
 30858 39815 39817    1
 30859 39818 39819    1
 30860 39818 39820    1
 30861 39821 39822    1
 30862 39821 39823    1
 30863 39824 39825    1
 30864 39824 39826    1
 30865 39827 39828    1
 30866 39827 39829    1
 30867 39830 39831    1
 30868 39830 39832    1
 30869 39833 39834    1
 30870 39833 39835    1
 30871 39836 39837    1
 30872 39836 39838    1
 30873 39839 39840    1
 30874 39839 39841    1
 30875 39842 39843    1
 30876 39842 39844    1
 30877 39845 39846    1
 30878 39845 39847    1
 30879 39848 39849    1
 30880 39848 39850    1
 30881 39851 39852    1
 30882 39851 39853    1
 30883 39854 39855    1
 30884 39854 39856    1
 30885 39857 39858    1
 30886 39857 39859    1
 30887 39860 39861    1
 30888 39860 39862    1
 30889 39863 39864    1
 30890 39863 39865    1
 30891 39866 39867    1
 30892 39866 39868    1
 30893 39869 39870    1
 30894 39869 39871    1
 30895 39872 39873    1
 30896 39872 39874    1
 30897 39875 39876    1
 30898 39875 39877    1
 30899 39878 39879    1
 30900 39878 39880    1
 30901 39881 39882    1
 30902 39881 39883    1
 30903 39884 39885    1
 30904 39884 39886    1
 30905 39887 39888    1
 30906 39887 39889    1
 30907 39890 39891    1
 30908 39890 39892    1
 30909 39893 39894    1
 30910 39893 39895    1
 30911 39896 39897    1
 30912 39896 39898    1
 30913 39899 39900    1
 30914 39899 39901    1
 30915 39902 39903    1
 30916 39902 39904    1
 30917 39905 39906    1
 30918 39905 39907    1
 30919 39908 39909    1
 30920 39908 39910    1
 30921 39911 39912    1
 30922 39911 39913    1
 30923 39914 39915    1
 30924 39914 39916    1
 30925 39917 39918    1
 30926 39917 39919    1
 30927 39920 39921    1
 30928 39920 39922    1
 30929 39923 39924    1
 30930 39923 39925    1
 30931 39926 39927    1
 30932 39926 39928    1
 30933 39929 39930    1
 30934 39929 39931    1
 30935 39932 39933    1
 30936 39932 39934    1
 30937 39935 39936    1
 30938 39935 39937    1
 30939 39938 39939    1
 30940 39938 39940    1
 30941 39941 39942    1
 30942 39941 39943    1
 30943 39944 39945    1
 30944 39944 39946    1
 30945 39947 39948    1
 30946 39947 39949    1
 30947 39950 39951    1
 30948 39950 39952    1
 30949 39953 39954    1
 30950 39953 39955    1
 30951 39956 39957    1
 30952 39956 39958    1
 30953 39959 39960    1
 30954 39959 39961    1
 30955 39962 39963    1
 30956 39962 39964    1
 30957 39965 39966    1
 30958 39965 39967    1
 30959 39968 39969    1
 30960 39968 39970    1
 30961 39971 39972    1
 30962 39971 39973    1
 30963 39974 39975    1
 30964 39974 39976    1
 30965 39977 39978    1
 30966 39977 39979    1
 30967 39980 39981    1
 30968 39980 39982    1
 30969 39983 39984    1
 30970 39983 39985    1
 30971 39986 39987    1
 30972 39986 39988    1
 30973 39989 39990    1
 30974 39989 39991    1
 30975 39992 39993    1
 30976 39992 39994    1
 30977 39995 39996    1
 30978 39995 39997    1
 30979 39998 39999    1
 30980 39998 40000    1
 30981 40001 40002    1
 30982 40001 40003    1
 30983 40004 40005    1
 30984 40004 40006    1
 30985 40007 40008    1
 30986 40007 40009    1
 30987 40010 40011    1
 30988 40010 40012    1
 30989 40013 40014    1
 30990 40013 40015    1
 30991 40016 40017    1
 30992 40016 40018    1
 30993 40019 40020    1
 30994 40019 40021    1
 30995 40022 40023    1
 30996 40022 40024    1
 30997 40025 40026    1
 30998 40025 40027    1
 30999 40028 40029    1
 31000 40028 40030    1
 31001 40031 40032    1
 31002 40031 40033    1
 31003 40034 40035    1
 31004 40034 40036    1
 31005 40037 40038    1
 31006 40037 40039    1
 31007 40040 40041    1
 31008 40040 40042    1
 31009 40043 40044    1
 31010 40043 40045    1
 31011 40046 40047    1
 31012 40046 40048    1
 31013 40049 40050    1
 31014 40049 40051    1
 31015 40052 40053    1
 31016 40052 40054    1
 31017 40055 40056    1
 31018 40055 40057    1
 31019 40058 40059    1
 31020 40058 40060    1
 31021 40061 40062    1
 31022 40061 40063    1
 31023 40064 40065    1
 31024 40064 40066    1
 31025 40067 40068    1
 31026 40067 40069    1
 31027 40070 40071    1
 31028 40070 40072    1
 31029 40073 40074    1
 31030 40073 40075    1
 31031 40076 40077    1
 31032 40076 40078    1
 31033 40079 40080    1
 31034 40079 40081    1
 31035 40082 40083    1
 31036 40082 40084    1
 31037 40085 40086    1
 31038 40085 40087    1
 31039 40088 40089    1
 31040 40088 40090    1
 31041 40091 40092    1
 31042 40091 40093    1
 31043 40094 40095    1
 31044 40094 40096    1
 31045 40097 40098    1
 31046 40097 40099    1
 31047 40100 40101    1
 31048 40100 40102    1
 31049 40103 40104    1
 31050 40103 40105    1
 31051 40106 40107    1
 31052 40106 40108    1
 31053 40109 40110    1
 31054 40109 40111    1
 31055 40112 40113    1
 31056 40112 40114    1
 31057 40115 40116    1
 31058 40115 40117    1
 31059 40118 40119    1
 31060 40118 40120    1
 31061 40121 40122    1
 31062 40121 40123    1
 31063 40124 40125    1
 31064 40124 40126    1
 31065 40127 40128    1
 31066 40127 40129    1
 31067 40130 40131    1
 31068 40130 40132    1
 31069 40133 40134    1
 31070 40133 40135    1
 31071 40136 40137    1
 31072 40136 40138    1
 31073 40139 40140    1
 31074 40139 40141    1
 31075 40142 40143    1
 31076 40142 40144    1
 31077 40145 40146    1
 31078 40145 40147    1
 31079 40148 40149    1
 31080 40148 40150    1
 31081 40151 40152    1
 31082 40151 40153    1
 31083 40154 40155    1
 31084 40154 40156    1
 31085 40157 40158    1
 31086 40157 40159    1
 31087 40160 40161    1
 31088 40160 40162    1
 31089 40163 40164    1
 31090 40163 40165    1
 31091 40166 40167    1
 31092 40166 40168    1
 31093 40169 40170    1
 31094 40169 40171    1
 31095 40172 40173    1
 31096 40172 40174    1
 31097 40175 40176    1
 31098 40175 40177    1
 31099 40178 40179    1
 31100 40178 40180    1
 31101 40181 40182    1
 31102 40181 40183    1
 31103 40184 40185    1
 31104 40184 40186    1
 31105 40187 40188    1
 31106 40187 40189    1
 31107 40190 40191    1
 31108 40190 40192    1
 31109 40193 40194    1
 31110 40193 40195    1
 31111 40196 40197    1
 31112 40196 40198    1
 31113 40199 40200    1
 31114 40199 40201    1
 31115 40202 40203    1
 31116 40202 40204    1
 31117 40205 40206    1
 31118 40205 40207    1
 31119 40208 40209    1
 31120 40208 40210    1
 31121 40211 40212    1
 31122 40211 40213    1
 31123 40214 40215    1
 31124 40214 40216    1
 31125 40217 40218    1
 31126 40217 40219    1
 31127 40220 40221    1
 31128 40220 40222    1
 31129 40223 40224    1
 31130 40223 40225    1
 31131 40226 40227    1
 31132 40226 40228    1
 31133 40229 40230    1
 31134 40229 40231    1
 31135 40232 40233    1
 31136 40232 40234    1
 31137 40235 40236    1
 31138 40235 40237    1
 31139 40238 40239    1
 31140 40238 40240    1
 31141 40241 40242    1
 31142 40241 40243    1
 31143 40244 40245    1
 31144 40244 40246    1
 31145 40247 40248    1
 31146 40247 40249    1
 31147 40250 40251    1
 31148 40250 40252    1
 31149 40253 40254    1
 31150 40253 40255    1
 31151 40256 40257    1
 31152 40256 40258    1
 31153 40259 40260    1
 31154 40259 40261    1
 31155 40262 40263    1
 31156 40262 40264    1
 31157 40265 40266    1
 31158 40265 40267    1
 31159 40268 40269    1
 31160 40268 40270    1
 31161 40271 40272    1
 31162 40271 40273    1
 31163 40274 40275    1
 31164 40274 40276    1
 31165 40277 40278    1
 31166 40277 40279    1
 31167 40280 40281    1
 31168 40280 40282    1
 31169 40283 40284    1
 31170 40283 40285    1
 31171 40286 40287    1
 31172 40286 40288    1
 31173 40289 40290    1
 31174 40289 40291    1
 31175 40292 40293    1
 31176 40292 40294    1
 31177 40295 40296    1
 31178 40295 40297    1
 31179 40298 40299    1
 31180 40298 40300    1
 31181 40301 40302    1
 31182 40301 40303    1
 31183 40304 40305    1
 31184 40304 40306    1
 31185 40307 40308    1
 31186 40307 40309    1
 31187 40310 40311    1
 31188 40310 40312    1
 31189 40313 40314    1
 31190 40313 40315    1
 31191 40316 40317    1
 31192 40316 40318    1
 31193 40319 40320    1
 31194 40319 40321    1
 31195 40322 40323    1
 31196 40322 40324    1
 31197 40325 40326    1
 31198 40325 40327    1
 31199 40328 40329    1
 31200 40328 40330    1
 31201 40331 40332    1
 31202 40331 40333    1
 31203 40334 40335    1
 31204 40334 40336    1
 31205 40337 40338    1
 31206 40337 40339    1
 31207 40340 40341    1
 31208 40340 40342    1
 31209 40343 40344    1
 31210 40343 40345    1
 31211 40346 40347    1
 31212 40346 40348    1
 31213 40349 40350    1
 31214 40349 40351    1
 31215 40352 40353    1
 31216 40352 40354    1
 31217 40355 40356    1
 31218 40355 40357    1
 31219 40358 40359    1
 31220 40358 40360    1
 31221 40361 40362    1
 31222 40361 40363    1
 31223 40364 40365    1
 31224 40364 40366    1
 31225 40367 40368    1
 31226 40367 40369    1
 31227 40370 40371    1
 31228 40370 40372    1
 31229 40373 40374    1
 31230 40373 40375    1
 31231 40376 40377    1
 31232 40376 40378    1
 31233 40379 40380    1
 31234 40379 40381    1
 31235 40382 40383    1
 31236 40382 40384    1
 31237 40385 40386    1
 31238 40385 40387    1
 31239 40388 40389    1
 31240 40388 40390    1
 31241 40391 40392    1
 31242 40391 40393    1
 31243 40394 40395    1
 31244 40394 40396    1
 31245 40397 40398    1
 31246 40397 40399    1
 31247 40400 40401    1
 31248 40400 40402    1
 31249 40403 40404    1
 31250 40403 40405    1
 31251 40406 40407    1
 31252 40406 40408    1
 31253 40409 40410    1
 31254 40409 40411    1
 31255 40412 40413    1
 31256 40412 40414    1
 31257 40415 40416    1
 31258 40415 40417    1
 31259 40418 40419    1
 31260 40418 40420    1
 31261 40421 40422    1
 31262 40421 40423    1
 31263 40424 40425    1
 31264 40424 40426    1
 31265 40427 40428    1
 31266 40427 40429    1
 31267 40430 40431    1
 31268 40430 40432    1
 31269 40433 40434    1
 31270 40433 40435    1
 31271 40436 40437    1
 31272 40436 40438    1
 31273 40439 40440    1
 31274 40439 40441    1
 31275 40442 40443    1
 31276 40442 40444    1
 31277 40445 40446    1
 31278 40445 40447    1
 31279 40448 40449    1
 31280 40448 40450    1
 31281 40451 40452    1
 31282 40451 40453    1
 31283 40454 40455    1
 31284 40454 40456    1
 31285 40457 40458    1
 31286 40457 40459    1
 31287 40460 40461    1
 31288 40460 40462    1
 31289 40463 40464    1
 31290 40463 40465    1
 31291 40466 40467    1
 31292 40466 40468    1
 31293 40469 40470    1
 31294 40469 40471    1
 31295 40472 40473    1
 31296 40472 40474    1
 31297 40475 40476    1
 31298 40475 40477    1
 31299 40478 40479    1
 31300 40478 40480    1
 31301 40481 40482    1
 31302 40481 40483    1
 31303 40484 40485    1
 31304 40484 40486    1
 31305 40487 40488    1
 31306 40487 40489    1
 31307 40490 40491    1
 31308 40490 40492    1
 31309 40493 40494    1
 31310 40493 40495    1
 31311 40496 40497    1
 31312 40496 40498    1
 31313 40499 40500    1
 31314 40499 40501    1
 31315 40502 40503    1
 31316 40502 40504    1
 31317 40505 40506    1
 31318 40505 40507    1
 31319 40508 40509    1
 31320 40508 40510    1
 31321 40511 40512    1
 31322 40511 40513    1
 31323 40514 40515    1
 31324 40514 40516    1
 31325 40517 40518    1
 31326 40517 40519    1
 31327 40520 40521    1
 31328 40520 40522    1
 31329 40523 40524    1
 31330 40523 40525    1
 31331 40526 40527    1
 31332 40526 40528    1
 31333 40529 40530    1
 31334 40529 40531    1
 31335 40532 40533    1
 31336 40532 40534    1
 31337 40535 40536    1
 31338 40535 40537    1
 31339 40538 40539    1
 31340 40538 40540    1
 31341 40541 40542    1
 31342 40541 40543    1
 31343 40544 40545    1
 31344 40544 40546    1
 31345 40547 40548    1
 31346 40547 40549    1
 31347 40550 40551    1
 31348 40550 40552    1
 31349 40553 40554    1
 31350 40553 40555    1
 31351 40556 40557    1
 31352 40556 40558    1
 31353 40559 40560    1
 31354 40559 40561    1
 31355 40562 40563    1
 31356 40562 40564    1
 31357 40565 40566    1
 31358 40565 40567    1
 31359 40568 40569    1
 31360 40568 40570    1
 31361 40571 40572    1
 31362 40571 40573    1
 31363 40574 40575    1
 31364 40574 40576    1
 31365 40577 40578    1
 31366 40577 40579    1
 31367 40580 40581    1
 31368 40580 40582    1
 31369 40583 40584    1
 31370 40583 40585    1
 31371 40586 40587    1
 31372 40586 40588    1
 31373 40589 40590    1
 31374 40589 40591    1
 31375 40592 40593    1
 31376 40592 40594    1
 31377 40595 40596    1
 31378 40595 40597    1
 31379 40598 40599    1
 31380 40598 40600    1
 31381 40601 40602    1
 31382 40601 40603    1
 31383 40604 40605    1
 31384 40604 40606    1
 31385 40607 40608    1
 31386 40607 40609    1
 31387 40610 40611    1
 31388 40610 40612    1
 31389 40613 40614    1
 31390 40613 40615    1
 31391 40616 40617    1
 31392 40616 40618    1
 31393 40619 40620    1
 31394 40619 40621    1
 31395 40622 40623    1
 31396 40622 40624    1
 31397 40625 40626    1
 31398 40625 40627    1
 31399 40628 40629    1
 31400 40628 40630    1
 31401 40631 40632    1
 31402 40631 40633    1
 31403 40634 40635    1
 31404 40634 40636    1
 31405 40637 40638    1
 31406 40637 40639    1
 31407 40640 40641    1
 31408 40640 40642    1
 31409 40643 40644    1
 31410 40643 40645    1
 31411 40646 40647    1
 31412 40646 40648    1
 31413 40649 40650    1
 31414 40649 40651    1
 31415 40652 40653    1
 31416 40652 40654    1
 31417 40655 40656    1
 31418 40655 40657    1
 31419 40658 40659    1
 31420 40658 40660    1
 31421 40661 40662    1
 31422 40661 40663    1
 31423 40664 40665    1
 31424 40664 40666    1
 31425 40667 40668    1
 31426 40667 40669    1
 31427 40670 40671    1
 31428 40670 40672    1
 31429 40673 40674    1
 31430 40673 40675    1
 31431 40676 40677    1
 31432 40676 40678    1
 31433 40679 40680    1
 31434 40679 40681    1
 31435 40682 40683    1
 31436 40682 40684    1
 31437 40685 40686    1
 31438 40685 40687    1
 31439 40688 40689    1
 31440 40688 40690    1
 31441 40691 40692    1
 31442 40691 40693    1
 31443 40694 40695    1
 31444 40694 40696    1
 31445 40697 40698    1
 31446 40697 40699    1
 31447 40700 40701    1
 31448 40700 40702    1
 31449 40703 40704    1
 31450 40703 40705    1
 31451 40706 40707    1
 31452 40706 40708    1
 31453 40709 40710    1
 31454 40709 40711    1
 31455 40712 40713    1
 31456 40712 40714    1
 31457 40715 40716    1
 31458 40715 40717    1
 31459 40718 40719    1
 31460 40718 40720    1
 31461 40721 40722    1
 31462 40721 40723    1
 31463 40724 40725    1
 31464 40724 40726    1
 31465 40727 40728    1
 31466 40727 40729    1
 31467 40730 40731    1
 31468 40730 40732    1
 31469 40733 40734    1
 31470 40733 40735    1
 31471 40736 40737    1
 31472 40736 40738    1
 31473 40739 40740    1
 31474 40739 40741    1
 31475 40742 40743    1
 31476 40742 40744    1
 31477 40745 40746    1
 31478 40745 40747    1
 31479 40748 40749    1
 31480 40748 40750    1
 31481 40751 40752    1
 31482 40751 40753    1
 31483 40754 40755    1
 31484 40754 40756    1
 31485 40757 40758    1
 31486 40757 40759    1
 31487 40760 40761    1
 31488 40760 40762    1
 31489 40763 40764    1
 31490 40763 40765    1
 31491 40766 40767    1
 31492 40766 40768    1
 31493 40769 40770    1
 31494 40769 40771    1
 31495 40772 40773    1
 31496 40772 40774    1
 31497 40775 40776    1
 31498 40775 40777    1
 31499 40778 40779    1
 31500 40778 40780    1
 31501 40781 40782    1
 31502 40781 40783    1
 31503 40784 40785    1
 31504 40784 40786    1
 31505 40787 40788    1
 31506 40787 40789    1
 31507 40790 40791    1
 31508 40790 40792    1
 31509 40793 40794    1
 31510 40793 40795    1
 31511 40796 40797    1
 31512 40796 40798    1
 31513 40799 40800    1
 31514 40799 40801    1
 31515 40802 40803    1
 31516 40802 40804    1
 31517 40805 40806    1
 31518 40805 40807    1
 31519 40808 40809    1
 31520 40808 40810    1
 31521 40811 40812    1
 31522 40811 40813    1
 31523 40814 40815    1
 31524 40814 40816    1
 31525 40817 40818    1
 31526 40817 40819    1
 31527 40820 40821    1
 31528 40820 40822    1
 31529 40823 40824    1
 31530 40823 40825    1
 31531 40826 40827    1
 31532 40826 40828    1
 31533 40829 40830    1
 31534 40829 40831    1
 31535 40832 40833    1
 31536 40832 40834    1
 31537 40835 40836    1
 31538 40835 40837    1
 31539 40838 40839    1
 31540 40838 40840    1
 31541 40841 40842    1
 31542 40841 40843    1
 31543 40844 40845    1
 31544 40844 40846    1
 31545 40847 40848    1
 31546 40847 40849    1
 31547 40850 40851    1
 31548 40850 40852    1
 31549 40853 40854    1
 31550 40853 40855    1
 31551 40856 40857    1
 31552 40856 40858    1
 31553 40859 40860    1
 31554 40859 40861    1
 31555 40862 40863    1
 31556 40862 40864    1
 31557 40865 40866    1
 31558 40865 40867    1
 31559 40868 40869    1
 31560 40868 40870    1
 31561 40871 40872    1
 31562 40871 40873    1
 31563 40874 40875    1
 31564 40874 40876    1
 31565 40877 40878    1
 31566 40877 40879    1
 31567 40880 40881    1
 31568 40880 40882    1
 31569 40883 40884    1
 31570 40883 40885    1
 31571 40886 40887    1
 31572 40886 40888    1
 31573 40889 40890    1
 31574 40889 40891    1
 31575 40892 40893    1
 31576 40892 40894    1
 31577 40895 40896    1
 31578 40895 40897    1
 31579 40898 40899    1
 31580 40898 40900    1
 31581 40901 40902    1
 31582 40901 40903    1
 31583 40904 40905    1
 31584 40904 40906    1
 31585 40907 40908    1
 31586 40907 40909    1
 31587 40910 40911    1
 31588 40910 40912    1
 31589 40913 40914    1
 31590 40913 40915    1
 31591 40916 40917    1
 31592 40916 40918    1
 31593 40919 40920    1
 31594 40919 40921    1
 31595 40922 40923    1
 31596 40922 40924    1
 31597 40925 40926    1
 31598 40925 40927    1
 31599 40928 40929    1
 31600 40928 40930    1
 31601 40931 40932    1
 31602 40931 40933    1
 31603 40934 40935    1
 31604 40934 40936    1
 31605 40937 40938    1
 31606 40937 40939    1
 31607 40940 40941    1
 31608 40940 40942    1
 31609 40943 40944    1
 31610 40943 40945    1
 31611 40946 40947    1
 31612 40946 40948    1
 31613 40949 40950    1
 31614 40949 40951    1
 31615 40952 40953    1
 31616 40952 40954    1
 31617 40955 40956    1
 31618 40955 40957    1
 31619 40958 40959    1
 31620 40958 40960    1
 31621 40961 40962    1
 31622 40961 40963    1
 31623 40964 40965    1
 31624 40964 40966    1
 31625 40967 40968    1
 31626 40967 40969    1
 31627 40970 40971    1
 31628 40970 40972    1
 31629 40973 40974    1
 31630 40973 40975    1
 31631 40976 40977    1
 31632 40976 40978    1
 31633 40979 40980    1
 31634 40979 40981    1
 31635 40982 40983    1
 31636 40982 40984    1
 31637 40985 40986    1
 31638 40985 40987    1
 31639 40988 40989    1
 31640 40988 40990    1
 31641 40991 40992    1
 31642 40991 40993    1
 31643 40994 40995    1
 31644 40994 40996    1
 31645 40997 40998    1
 31646 40997 40999    1
 31647 41000 41001    1
 31648 41000 41002    1
 31649 41003 41004    1
 31650 41003 41005    1
 31651 41006 41007    1
 31652 41006 41008    1
 31653 41009 41010    1
 31654 41009 41011    1
 31655 41012 41013    1
 31656 41012 41014    1
 31657 41015 41016    1
 31658 41015 41017    1
 31659 41018 41019    1
 31660 41018 41020    1
 31661 41021 41022    1
 31662 41021 41023    1
 31663 41024 41025    1
 31664 41024 41026    1
 31665 41027 41028    1
 31666 41027 41029    1
 31667 41030 41031    1
 31668 41030 41032    1
 31669 41033 41034    1
 31670 41033 41035    1
 31671 41036 41037    1
 31672 41036 41038    1
 31673 41039 41040    1
 31674 41039 41041    1
 31675 41042 41043    1
 31676 41042 41044    1
 31677 41045 41046    1
 31678 41045 41047    1
 31679 41048 41049    1
 31680 41048 41050    1
 31681 41051 41052    1
 31682 41051 41053    1
 31683 41054 41055    1
 31684 41054 41056    1
 31685 41057 41058    1
 31686 41057 41059    1
 31687 41060 41061    1
 31688 41060 41062    1
 31689 41063 41064    1
 31690 41063 41065    1
 31691 41066 41067    1
 31692 41066 41068    1
 31693 41069 41070    1
 31694 41069 41071    1
 31695 41072 41073    1
 31696 41072 41074    1
 31697 41075 41076    1
 31698 41075 41077    1
 31699 41078 41079    1
 31700 41078 41080    1
 31701 41081 41082    1
 31702 41081 41083    1
 31703 41084 41085    1
 31704 41084 41086    1
 31705 41087 41088    1
 31706 41087 41089    1
 31707 41090 41091    1
 31708 41090 41092    1
 31709 41093 41094    1
 31710 41093 41095    1
 31711 41096 41097    1
 31712 41096 41098    1
 31713 41099 41100    1
 31714 41099 41101    1
 31715 41102 41103    1
 31716 41102 41104    1
 31717 41105 41106    1
 31718 41105 41107    1
 31719 41108 41109    1
 31720 41108 41110    1
 31721 41111 41112    1
 31722 41111 41113    1
 31723 41114 41115    1
 31724 41114 41116    1
 31725 41117 41118    1
 31726 41117 41119    1
 31727 41120 41121    1
 31728 41120 41122    1
 31729 41123 41124    1
 31730 41123 41125    1
 31731 41126 41127    1
 31732 41126 41128    1
 31733 41129 41130    1
 31734 41129 41131    1
 31735 41132 41133    1
 31736 41132 41134    1
 31737 41135 41136    1
 31738 41135 41137    1
 31739 41138 41139    1
 31740 41138 41140    1
 31741 41141 41142    1
 31742 41141 41143    1
 31743 41144 41145    1
 31744 41144 41146    1
 31745 41147 41148    1
 31746 41147 41149    1
 31747 41150 41151    1
 31748 41150 41152    1
 31749 41153 41154    1
 31750 41153 41155    1
 31751 41156 41157    1
 31752 41156 41158    1
 31753 41159 41160    1
 31754 41159 41161    1
 31755 41162 41163    1
 31756 41162 41164    1
 31757 41165 41166    1
 31758 41165 41167    1
 31759 41168 41169    1
 31760 41168 41170    1
 31761 41171 41172    1
 31762 41171 41173    1
 31763 41174 41175    1
 31764 41174 41176    1
 31765 41177 41178    1
 31766 41177 41179    1
 31767 41180 41181    1
 31768 41180 41182    1
 31769 41183 41184    1
 31770 41183 41185    1
 31771 41186 41187    1
 31772 41186 41188    1
 31773 41189 41190    1
 31774 41189 41191    1
 31775 41192 41193    1
 31776 41192 41194    1
 31777 41195 41196    1
 31778 41195 41197    1
 31779 41198 41199    1
 31780 41198 41200    1
 31781 41201 41202    1
 31782 41201 41203    1
 31783 41204 41205    1
 31784 41204 41206    1
 31785 41207 41208    1
 31786 41207 41209    1
 31787 41210 41211    1
 31788 41210 41212    1
 31789 41213 41214    1
 31790 41213 41215    1
 31791 41216 41217    1
 31792 41216 41218    1
 31793 41219 41220    1
 31794 41219 41221    1
 31795 41222 41223    1
 31796 41222 41224    1
 31797 41225 41226    1
 31798 41225 41227    1
 31799 41228 41229    1
 31800 41228 41230    1
 31801 41231 41232    1
 31802 41231 41233    1
 31803 41234 41235    1
 31804 41234 41236    1
 31805 41237 41238    1
 31806 41237 41239    1
 31807 41240 41241    1
 31808 41240 41242    1
 31809 41243 41244    1
 31810 41243 41245    1
 31811 41246 41247    1
 31812 41246 41248    1
 31813 41249 41250    1
 31814 41249 41251    1
 31815 41252 41253    1
 31816 41252 41254    1
 31817 41255 41256    1
 31818 41255 41257    1
 31819 41258 41259    1
 31820 41258 41260    1
 31821 41261 41262    1
 31822 41261 41263    1
 31823 41264 41265    1
 31824 41264 41266    1
 31825 41267 41268    1
 31826 41267 41269    1
 31827 41270 41271    1
 31828 41270 41272    1
 31829 41273 41274    1
 31830 41273 41275    1
 31831 41276 41277    1
 31832 41276 41278    1
 31833 41279 41280    1
 31834 41279 41281    1
 31835 41282 41283    1
 31836 41282 41284    1
 31837 41285 41286    1
 31838 41285 41287    1
 31839 41288 41289    1
 31840 41288 41290    1
 31841 41291 41292    1
 31842 41291 41293    1
 31843 41294 41295    1
 31844 41294 41296    1
 31845 41297 41298    1
 31846 41297 41299    1
 31847 41300 41301    1
 31848 41300 41302    1
 31849 41303 41304    1
 31850 41303 41305    1
 31851 41306 41307    1
 31852 41306 41308    1
 31853 41309 41310    1
 31854 41309 41311    1
 31855 41312 41313    1
 31856 41312 41314    1
 31857 41315 41316    1
 31858 41315 41317    1
 31859 41318 41319    1
 31860 41318 41320    1
 31861 41321 41322    1
 31862 41321 41323    1
 31863 41324 41325    1
 31864 41324 41326    1
 31865 41327 41328    1
 31866 41327 41329    1
 31867 41330 41331    1
 31868 41330 41332    1
 31869 41333 41334    1
 31870 41333 41335    1
 31871 41336 41337    1
 31872 41336 41338    1
 31873 41339 41340    1
 31874 41339 41341    1
 31875 41342 41343    1
 31876 41342 41344    1
 31877 41345 41346    1
 31878 41345 41347    1
 31879 41348 41349    1
 31880 41348 41350    1
 31881 41351 41352    1
 31882 41351 41353    1
 31883 41354 41355    1
 31884 41354 41356    1
 31885 41357 41358    1
 31886 41357 41359    1
 31887 41360 41361    1
 31888 41360 41362    1
 31889 41363 41364    1
 31890 41363 41365    1
 31891 41366 41367    1
 31892 41366 41368    1
 31893 41369 41370    1
 31894 41369 41371    1
 31895 41372 41373    1
 31896 41372 41374    1
 31897 41375 41376    1
 31898 41375 41377    1
 31899 41378 41379    1
 31900 41378 41380    1
 31901 41381 41382    1
 31902 41381 41383    1
 31903 41384 41385    1
 31904 41384 41386    1
 31905 41387 41388    1
 31906 41387 41389    1
 31907 41390 41391    1
 31908 41390 41392    1
 31909 41393 41394    1
 31910 41393 41395    1
 31911 41396 41397    1
 31912 41396 41398    1
 31913 41399 41400    1
 31914 41399 41401    1
 31915 41402 41403    1
 31916 41402 41404    1
 31917 41405 41406    1
 31918 41405 41407    1
 31919 41408 41409    1
 31920 41408 41410    1
 31921 41411 41412    1
 31922 41411 41413    1
 31923 41414 41415    1
 31924 41414 41416    1
 31925 41417 41418    1
 31926 41417 41419    1
 31927 41420 41421    1
 31928 41420 41422    1
 31929 41423 41424    1
 31930 41423 41425    1
 31931 41426 41427    1
 31932 41426 41428    1
 31933 41429 41430    1
 31934 41429 41431    1
 31935 41432 41433    1
 31936 41432 41434    1
 31937 41435 41436    1
 31938 41435 41437    1
 31939 41438 41439    1
 31940 41438 41440    1
 31941 41441 41442    1
 31942 41441 41443    1
 31943 41444 41445    1
 31944 41444 41446    1
 31945 41447 41448    1
 31946 41447 41449    1
 31947 41450 41451    1
 31948 41450 41452    1
 31949 41453 41454    1
 31950 41453 41455    1
 31951 41456 41457    1
 31952 41456 41458    1
 31953 41459 41460    1
 31954 41459 41461    1
 31955 41462 41463    1
 31956 41462 41464    1
 31957 41465 41466    1
 31958 41465 41467    1
 31959 41468 41469    1
 31960 41468 41470    1
 31961 41471 41472    1
 31962 41471 41473    1
 31963 41474 41475    1
 31964 41474 41476    1
 31965 41477 41478    1
 31966 41477 41479    1
 31967 41480 41481    1
 31968 41480 41482    1
 31969 41483 41484    1
 31970 41483 41485    1
 31971 41486 41487    1
 31972 41486 41488    1
 31973 41489 41490    1
 31974 41489 41491    1
 31975 41492 41493    1
 31976 41492 41494    1
 31977 41495 41496    1
 31978 41495 41497    1
 31979 41498 41499    1
 31980 41498 41500    1
 31981 41501 41502    1
 31982 41501 41503    1
 31983 41504 41505    1
 31984 41504 41506    1
 31985 41507 41508    1
 31986 41507 41509    1
 31987 41510 41511    1
 31988 41510 41512    1
 31989 41513 41514    1
 31990 41513 41515    1
 31991 41516 41517    1
 31992 41516 41518    1
 31993 41519 41520    1
 31994 41519 41521    1
 31995 41522 41523    1
 31996 41522 41524    1
 31997 41525 41526    1
 31998 41525 41527    1
 31999 41528 41529    1
 32000 41528 41530    1
 32001 41531 41532    1
 32002 41531 41533    1
 32003 41534 41535    1
 32004 41534 41536    1
 32005 41537 41538    1
 32006 41537 41539    1
 32007 41540 41541    1
 32008 41540 41542    1
 32009 41543 41544    1
 32010 41543 41545    1
 32011 41546 41547    1
 32012 41546 41548    1
 32013 41549 41550    1
 32014 41549 41551    1
 32015 41552 41553    1
 32016 41552 41554    1
 32017 41555 41556    1
 32018 41555 41557    1
 32019 41558 41559    1
 32020 41558 41560    1
 32021 41561 41562    1
 32022 41561 41563    1
 32023 41564 41565    1
 32024 41564 41566    1
 32025 41567 41568    1
 32026 41567 41569    1
 32027 41570 41571    1
 32028 41570 41572    1
 32029 41573 41574    1
 32030 41573 41575    1
 32031 41576 41577    1
 32032 41576 41578    1
 32033 41579 41580    1
 32034 41579 41581    1
 32035 41582 41583    1
 32036 41582 41584    1
 32037 41585 41586    1
 32038 41585 41587    1
 32039 41588 41589    1
 32040 41588 41590    1
 32041 41591 41592    1
 32042 41591 41593    1
 32043 41594 41595    1
 32044 41594 41596    1
 32045 41597 41598    1
 32046 41597 41599    1
 32047 41600 41601    1
 32048 41600 41602    1
 32049 41603 41604    1
 32050 41603 41605    1
 32051 41606 41607    1
 32052 41606 41608    1
 32053 41609 41610    1
 32054 41609 41611    1
 32055 41612 41613    1
 32056 41612 41614    1
 32057 41615 41616    1
 32058 41615 41617    1
 32059 41618 41619    1
 32060 41618 41620    1
 32061 41621 41622    1
 32062 41621 41623    1
 32063 41624 41625    1
 32064 41624 41626    1
 32065 41627 41628    1
 32066 41627 41629    1
 32067 41630 41631    1
 32068 41630 41632    1
 32069 41633 41634    1
 32070 41633 41635    1
 32071 41636 41637    1
 32072 41636 41638    1
 32073 41639 41640    1
 32074 41639 41641    1
 32075 41642 41643    1
 32076 41642 41644    1
 32077 41645 41646    1
 32078 41645 41647    1
 32079 41648 41649    1
 32080 41648 41650    1
 32081 41651 41652    1
 32082 41651 41653    1
 32083 41654 41655    1
 32084 41654 41656    1
 32085 41657 41658    1
 32086 41657 41659    1
 32087 41660 41661    1
 32088 41660 41662    1
 32089 41663 41664    1
 32090 41663 41665    1
 32091 41666 41667    1
 32092 41666 41668    1
 32093 41669 41670    1
 32094 41669 41671    1
 32095 41672 41673    1
 32096 41672 41674    1
 32097 41675 41676    1
 32098 41675 41677    1
 32099 41678 41679    1
 32100 41678 41680    1
 32101 41681 41682    1
 32102 41681 41683    1
 32103 41684 41685    1
 32104 41684 41686    1
 32105 41687 41688    1
 32106 41687 41689    1
 32107 41690 41691    1
 32108 41690 41692    1
 32109 41693 41694    1
 32110 41693 41695    1
 32111 41696 41697    1
 32112 41696 41698    1
 32113 41699 41700    1
 32114 41699 41701    1
 32115 41702 41703    1
 32116 41702 41704    1
 32117 41705 41706    1
 32118 41705 41707    1
 32119 41708 41709    1
 32120 41708 41710    1
 32121 41711 41712    1
 32122 41711 41713    1
 32123 41714 41715    1
 32124 41714 41716    1
 32125 41717 41718    1
 32126 41717 41719    1
 32127 41720 41721    1
 32128 41720 41722    1
 32129 41723 41724    1
 32130 41723 41725    1
 32131 41726 41727    1
 32132 41726 41728    1
 32133 41729 41730    1
 32134 41729 41731    1
 32135 41732 41733    1
 32136 41732 41734    1
 32137 41735 41736    1
 32138 41735 41737    1
 32139 41738 41739    1
 32140 41738 41740    1
 32141 41741 41742    1
 32142 41741 41743    1
 32143 41744 41745    1
 32144 41744 41746    1
 32145 41747 41748    1
 32146 41747 41749    1
 32147 41750 41751    1
 32148 41750 41752    1
 32149 41753 41754    1
 32150 41753 41755    1
 32151 41756 41757    1
 32152 41756 41758    1
 32153 41759 41760    1
 32154 41759 41761    1
 32155 41762 41763    1
 32156 41762 41764    1
 32157 41765 41766    1
 32158 41765 41767    1
 32159 41768 41769    1
 32160 41768 41770    1
 32161 41771 41772    1
 32162 41771 41773    1
 32163 41774 41775    1
 32164 41774 41776    1
 32165 41777 41778    1
 32166 41777 41779    1
 32167 41780 41781    1
 32168 41780 41782    1
 32169 41783 41784    1
 32170 41783 41785    1
 32171 41786 41787    1
 32172 41786 41788    1
 32173 41789 41790    1
 32174 41789 41791    1
 32175 41792 41793    1
 32176 41792 41794    1
 32177 41795 41796    1
 32178 41795 41797    1
 32179 41798 41799    1
 32180 41798 41800    1
 32181 41801 41802    1
 32182 41801 41803    1
 32183 41804 41805    1
 32184 41804 41806    1
 32185 41807 41808    1
 32186 41807 41809    1
 32187 41810 41811    1
 32188 41810 41812    1
 32189 41813 41814    1
 32190 41813 41815    1
 32191 41816 41817    1
 32192 41816 41818    1
 32193 41819 41820    1
 32194 41819 41821    1
 32195 41822 41823    1
 32196 41822 41824    1
 32197 41825 41826    1
 32198 41825 41827    1
 32199 41828 41829    1
 32200 41828 41830    1
 32201 41831 41832    1
 32202 41831 41833    1
 32203 41834 41835    1
 32204 41834 41836    1
 32205 41837 41838    1
 32206 41837 41839    1
 32207 41840 41841    1
 32208 41840 41842    1
 32209 41843 41844    1
 32210 41843 41845    1
 32211 41846 41847    1
 32212 41846 41848    1
 32213 41849 41850    1
 32214 41849 41851    1
 32215 41852 41853    1
 32216 41852 41854    1
 32217 41855 41856    1
 32218 41855 41857    1
 32219 41858 41859    1
 32220 41858 41860    1
 32221 41861 41862    1
 32222 41861 41863    1
 32223 41864 41865    1
 32224 41864 41866    1
 32225 41867 41868    1
 32226 41867 41869    1
 32227 41870 41871    1
 32228 41870 41872    1
 32229 41873 41874    1
 32230 41873 41875    1
 32231 41876 41877    1
 32232 41876 41878    1
 32233 41879 41880    1
 32234 41879 41881    1
 32235 41882 41883    1
 32236 41882 41884    1
 32237 41885 41886    1
 32238 41885 41887    1
 32239 41888 41889    1
 32240 41888 41890    1
 32241 41891 41892    1
 32242 41891 41893    1
 32243 41894 41895    1
 32244 41894 41896    1
 32245 41897 41898    1
 32246 41897 41899    1
 32247 41900 41901    1
 32248 41900 41902    1
 32249 41903 41904    1
 32250 41903 41905    1
 32251 41906 41907    1
 32252 41906 41908    1
 32253 41909 41910    1
 32254 41909 41911    1
 32255 41912 41913    1
 32256 41912 41914    1
 32257 41915 41916    1
 32258 41915 41917    1
 32259 41918 41919    1
 32260 41918 41920    1
 32261 41921 41922    1
 32262 41921 41923    1
 32263 41924 41925    1
 32264 41924 41926    1
 32265 41927 41928    1
 32266 41927 41929    1
 32267 41930 41931    1
 32268 41930 41932    1
 32269 41933 41934    1
 32270 41933 41935    1
 32271 41936 41937    1
 32272 41936 41938    1
 32273 41939 41940    1
 32274 41939 41941    1
 32275 41942 41943    1
 32276 41942 41944    1
 32277 41945 41946    1
 32278 41945 41947    1
 32279 41948 41949    1
 32280 41948 41950    1
 32281 41951 41952    1
 32282 41951 41953    1
 32283 41954 41955    1
 32284 41954 41956    1
 32285 41957 41958    1
 32286 41957 41959    1
 32287 41960 41961    1
 32288 41960 41962    1
 32289 41963 41964    1
 32290 41963 41965    1
 32291 41966 41967    1
 32292 41966 41968    1
 32293 41969 41970    1
 32294 41969 41971    1
 32295 41972 41973    1
 32296 41972 41974    1
 32297 41975 41976    1
 32298 41975 41977    1
 32299 41978 41979    1
 32300 41978 41980    1
 32301 41981 41982    1
 32302 41981 41983    1
 32303 41984 41985    1
 32304 41984 41986    1
 32305 41987 41988    1
 32306 41987 41989    1
 32307 41990 41991    1
 32308 41990 41992    1
 32309 41993 41994    1
 32310 41993 41995    1
 32311 41996 41997    1
 32312 41996 41998    1
 32313 41999 42000    1
 32314 41999 42001    1
 32315 42002 42003    1
 32316 42002 42004    1
 32317 42005 42006    1
 32318 42005 42007    1
 32319 42008 42009    1
 32320 42008 42010    1
 32321 42011 42012    1
 32322 42011 42013    1
 32323 42014 42015    1
 32324 42014 42016    1
 32325 42017 42018    1
 32326 42017 42019    1
 32327 42020 42021    1
 32328 42020 42022    1
 32329 42023 42024    1
 32330 42023 42025    1
 32331 42026 42027    1
 32332 42026 42028    1
 32333 42029 42030    1
 32334 42029 42031    1
 32335 42032 42033    1
 32336 42032 42034    1
 32337 42035 42036    1
 32338 42035 42037    1
 32339 42038 42039    1
 32340 42038 42040    1
 32341 42041 42042    1
 32342 42041 42043    1
 32343 42044 42045    1
 32344 42044 42046    1
 32345 42047 42048    1
 32346 42047 42049    1
 32347 42050 42051    1
 32348 42050 42052    1
 32349 42053 42054    1
 32350 42053 42055    1
 32351 42056 42057    1
 32352 42056 42058    1
 32353 42059 42060    1
 32354 42059 42061    1
 32355 42062 42063    1
 32356 42062 42064    1
 32357 42065 42066    1
 32358 42065 42067    1
 32359 42068 42069    1
 32360 42068 42070    1
 32361 42071 42072    1
 32362 42071 42073    1
 32363 42074 42075    1
 32364 42074 42076    1
 32365 42077 42078    1
 32366 42077 42079    1
 32367 42080 42081    1
 32368 42080 42082    1
 32369 42083 42084    1
 32370 42083 42085    1
 32371 42086 42087    1
 32372 42086 42088    1
 32373 42089 42090    1
 32374 42089 42091    1
 32375 42092 42093    1
 32376 42092 42094    1
 32377 42095 42096    1
 32378 42095 42097    1
 32379 42098 42099    1
 32380 42098 42100    1
 32381 42101 42102    1
 32382 42101 42103    1
 32383 42104 42105    1
 32384 42104 42106    1
 32385 42107 42108    1
 32386 42107 42109    1
 32387 42110 42111    1
 32388 42110 42112    1
 32389 42113 42114    1
 32390 42113 42115    1
 32391 42116 42117    1
 32392 42116 42118    1
 32393 42119 42120    1
 32394 42119 42121    1
 32395 42122 42123    1
 32396 42122 42124    1
 32397 42125 42126    1
 32398 42125 42127    1
 32399 42128 42129    1
 32400 42128 42130    1
 32401 42131 42132    1
 32402 42131 42133    1
 32403 42134 42135    1
 32404 42134 42136    1
 32405 42137 42138    1
 32406 42137 42139    1
 32407 42140 42141    1
 32408 42140 42142    1
 32409 42143 42144    1
 32410 42143 42145    1
 32411 42146 42147    1
 32412 42146 42148    1
 32413 42149 42150    1
 32414 42149 42151    1
 32415 42152 42153    1
 32416 42152 42154    1
 32417 42155 42156    1
 32418 42155 42157    1
 32419 42158 42159    1
 32420 42158 42160    1
 32421 42161 42162    1
 32422 42161 42163    1
 32423 42164 42165    1
 32424 42164 42166    1
 32425 42167 42168    1
 32426 42167 42169    1
 32427 42170 42171    1
 32428 42170 42172    1
 32429 42173 42174    1
 32430 42173 42175    1
 32431 42176 42177    1
 32432 42176 42178    1
 32433 42179 42180    1
 32434 42179 42181    1
 32435 42182 42183    1
 32436 42182 42184    1
 32437 42185 42186    1
 32438 42185 42187    1
 32439 42188 42189    1
 32440 42188 42190    1
 32441 42191 42192    1
 32442 42191 42193    1
 32443 42194 42195    1
 32444 42194 42196    1
 32445 42197 42198    1
 32446 42197 42199    1
 32447 42200 42201    1
 32448 42200 42202    1
 32449 42203 42204    1
 32450 42203 42205    1
 32451 42206 42207    1
 32452 42206 42208    1
 32453 42209 42210    1
 32454 42209 42211    1
 32455 42212 42213    1
 32456 42212 42214    1
 32457 42215 42216    1
 32458 42215 42217    1
 32459 42218 42219    1
 32460 42218 42220    1
 32461 42221 42222    1
 32462 42221 42223    1
 32463 42224 42225    1
 32464 42224 42226    1
 32465 42227 42228    1
 32466 42227 42229    1
 32467 42230 42231    1
 32468 42230 42232    1
 32469 42233 42234    1
 32470 42233 42235    1
 32471 42236 42237    1
 32472 42236 42238    1
 32473 42239 42240    1
 32474 42239 42241    1
 32475 42242 42243    1
 32476 42242 42244    1
 32477 42245 42246    1
 32478 42245 42247    1
 32479 42248 42249    1
 32480 42248 42250    1
 32481 42251 42252    1
 32482 42251 42253    1
 32483 42254 42255    1
 32484 42254 42256    1
 32485 42257 42258    1
 32486 42257 42259    1
 32487 42260 42261    1
 32488 42260 42262    1
 32489 42263 42264    1
 32490 42263 42265    1
 32491 42266 42267    1
 32492 42266 42268    1
 32493 42269 42270    1
 32494 42269 42271    1
 32495 42272 42273    1
 32496 42272 42274    1
 32497 42275 42276    1
 32498 42275 42277    1
 32499 42278 42279    1
 32500 42278 42280    1
 32501 42281 42282    1
 32502 42281 42283    1
 32503 42284 42285    1
 32504 42284 42286    1
 32505 42287 42288    1
 32506 42287 42289    1
 32507 42290 42291    1
 32508 42290 42292    1
 32509 42293 42294    1
 32510 42293 42295    1
 32511 42296 42297    1
 32512 42296 42298    1
 32513 42299 42300    1
 32514 42299 42301    1
 32515 42302 42303    1
 32516 42302 42304    1
 32517 42305 42306    1
 32518 42305 42307    1
 32519 42308 42309    1
 32520 42308 42310    1
 32521 42311 42312    1
 32522 42311 42313    1
 32523 42314 42315    1
 32524 42314 42316    1
 32525 42317 42318    1
 32526 42317 42319    1
 32527 42320 42321    1
 32528 42320 42322    1
 32529 42323 42324    1
 32530 42323 42325    1
 32531 42326 42327    1
 32532 42326 42328    1
 32533 42329 42330    1
 32534 42329 42331    1
 32535 42332 42333    1
 32536 42332 42334    1
 32537 42335 42336    1
 32538 42335 42337    1
 32539 42338 42339    1
 32540 42338 42340    1
 32541 42341 42342    1
 32542 42341 42343    1
 32543 42344 42345    1
 32544 42344 42346    1
 32545 42347 42348    1
 32546 42347 42349    1
 32547 42350 42351    1
 32548 42350 42352    1
 32549 42353 42354    1
 32550 42353 42355    1
 32551 42356 42357    1
 32552 42356 42358    1
 32553 42359 42360    1
 32554 42359 42361    1
 32555 42362 42363    1
 32556 42362 42364    1
 32557 42365 42366    1
 32558 42365 42367    1
 32559 42368 42369    1
 32560 42368 42370    1
 32561 42371 42372    1
 32562 42371 42373    1
 32563 42374 42375    1
 32564 42374 42376    1
 32565 42377 42378    1
 32566 42377 42379    1
 32567 42380 42381    1
 32568 42380 42382    1
 32569 42383 42384    1
 32570 42383 42385    1
 32571 42386 42387    1
 32572 42386 42388    1
 32573 42389 42390    1
 32574 42389 42391    1
 32575 42392 42393    1
 32576 42392 42394    1
 32577 42395 42396    1
 32578 42395 42397    1
 32579 42398 42399    1
 32580 42398 42400    1
 32581 42401 42402    1
 32582 42401 42403    1
 32583 42404 42405    1
 32584 42404 42406    1
 32585 42407 42408    1
 32586 42407 42409    1
 32587 42410 42411    1
 32588 42410 42412    1
 32589 42413 42414    1
 32590 42413 42415    1
 32591 42416 42417    1
 32592 42416 42418    1
 32593 42419 42420    1
 32594 42419 42421    1
 32595 42422 42423    1
 32596 42422 42424    1
 32597 42425 42426    1
 32598 42425 42427    1
 32599 42428 42429    1
 32600 42428 42430    1
 32601 42431 42432    1
 32602 42431 42433    1
 32603 42434 42435    1
 32604 42434 42436    1
 32605 42437 42438    1
 32606 42437 42439    1
 32607 42440 42441    1
 32608 42440 42442    1
 32609 42443 42444    1
 32610 42443 42445    1
 32611 42446 42447    1
 32612 42446 42448    1
 32613 42449 42450    1
 32614 42449 42451    1
 32615 42452 42453    1
 32616 42452 42454    1
 32617 42455 42456    1
 32618 42455 42457    1
 32619 42458 42459    1
 32620 42458 42460    1
 32621 42461 42462    1
 32622 42461 42463    1
 32623 42464 42465    1
 32624 42464 42466    1
 32625 42467 42468    1
 32626 42467 42469    1
 32627 42470 42471    1
 32628 42470 42472    1
 32629 42473 42474    1
 32630 42473 42475    1
 32631 42476 42477    1
 32632 42476 42478    1
 32633 42479 42480    1
 32634 42479 42481    1
 32635 42482 42483    1
 32636 42482 42484    1
 32637 42485 42486    1
 32638 42485 42487    1
 32639 42488 42489    1
 32640 42488 42490    1
 32641 42491 42492    1
 32642 42491 42493    1
 32643 42494 42495    1
 32644 42494 42496    1
 32645 42497 42498    1
 32646 42497 42499    1
 32647 42500 42501    1
 32648 42500 42502    1
 32649 42503 42504    1
 32650 42503 42505    1
 32651 42506 42507    1
 32652 42506 42508    1
 32653 42509 42510    1
 32654 42509 42511    1
 32655 42512 42513    1
 32656 42512 42514    1
 32657 42515 42516    1
 32658 42515 42517    1
 32659 42518 42519    1
 32660 42518 42520    1
 32661 42521 42522    1
 32662 42521 42523    1
 32663 42524 42525    1
 32664 42524 42526    1
 32665 42527 42528    1
 32666 42527 42529    1
 32667 42530 42531    1
 32668 42530 42532    1
 32669 42533 42534    1
 32670 42533 42535    1
 32671 42536 42537    1
 32672 42536 42538    1
 32673 42539 42540    1
 32674 42539 42541    1
 32675 42542 42543    1
 32676 42542 42544    1
 32677 42545 42546    1
 32678 42545 42547    1
 32679 42548 42549    1
 32680 42548 42550    1
 32681 42551 42552    1
 32682 42551 42553    1
 32683 42554 42555    1
 32684 42554 42556    1
 32685 42557 42558    1
 32686 42557 42559    1
 32687 42560 42561    1
 32688 42560 42562    1
 32689 42563 42564    1
 32690 42563 42565    1
 32691 42566 42567    1
 32692 42566 42568    1
 32693 42569 42570    1
 32694 42569 42571    1
 32695 42572 42573    1
 32696 42572 42574    1
 32697 42575 42576    1
 32698 42575 42577    1
 32699 42578 42579    1
 32700 42578 42580    1
 32701 42581 42582    1
 32702 42581 42583    1
 32703 42584 42585    1
 32704 42584 42586    1
 32705 42587 42588    1
 32706 42587 42589    1
 32707 42590 42591    1
 32708 42590 42592    1
 32709 42593 42594    1
 32710 42593 42595    1
 32711 42596 42597    1
 32712 42596 42598    1
 32713 42599 42600    1
 32714 42599 42601    1
 32715 42602 42603    1
 32716 42602 42604    1
 32717 42605 42606    1
 32718 42605 42607    1
 32719 42608 42609    1
 32720 42608 42610    1
 32721 42611 42612    1
 32722 42611 42613    1
 32723 42614 42615    1
 32724 42614 42616    1
 32725 42617 42618    1
 32726 42617 42619    1
 32727 42620 42621    1
 32728 42620 42622    1
 32729 42623 42624    1
 32730 42623 42625    1
 32731 42626 42627    1
 32732 42626 42628    1
 32733 42629 42630    1
 32734 42629 42631    1
 32735 42632 42633    1
 32736 42632 42634    1
 32737 42635 42636    1
 32738 42635 42637    1
 32739 42638 42639    1
 32740 42638 42640    1
 32741 42641 42642    1
 32742 42641 42643    1
 32743 42644 42645    1
 32744 42644 42646    1
 32745 42647 42648    1
 32746 42647 42649    1
 32747 42650 42651    1
 32748 42650 42652    1
 32749 42653 42654    1
 32750 42653 42655    1
 32751 42656 42657    1
 32752 42656 42658    1
 32753 42659 42660    1
 32754 42659 42661    1
 32755 42662 42663    1
 32756 42662 42664    1
 32757 42665 42666    1
 32758 42665 42667    1
 32759 42668 42669    1
 32760 42668 42670    1
 32761 42671 42672    1
 32762 42671 42673    1
 32763 42674 42675    1
 32764 42674 42676    1
 32765 42677 42678    1
 32766 42677 42679    1
 32767 42680 42681    1
 32768 42680 42682    1
 32769 42683 42684    1
 32770 42683 42685    1
 32771 42686 42687    1
 32772 42686 42688    1
 32773 42689 42690    1
 32774 42689 42691    1
 32775 42692 42693    1
 32776 42692 42694    1
 32777 42695 42696    1
 32778 42695 42697    1
 32779 42698 42699    1
 32780 42698 42700    1
 32781 42701 42702    1
 32782 42701 42703    1
 32783 42704 42705    1
 32784 42704 42706    1
 32785 42707 42708    1
 32786 42707 42709    1
 32787 42710 42711    1
 32788 42710 42712    1
 32789 42713 42714    1
 32790 42713 42715    1
 32791 42716 42717    1
 32792 42716 42718    1
 32793 42719 42720    1
 32794 42719 42721    1
 32795 42722 42723    1
 32796 42722 42724    1
 32797 42725 42726    1
 32798 42725 42727    1
 32799 42728 42729    1
 32800 42728 42730    1
 32801 42731 42732    1
 32802 42731 42733    1
 32803 42734 42735    1
 32804 42734 42736    1
 32805 42737 42738    1
 32806 42737 42739    1
 32807 42740 42741    1
 32808 42740 42742    1
 32809 42743 42744    1
 32810 42743 42745    1
 32811 42746 42747    1
 32812 42746 42748    1
 32813 42749 42750    1
 32814 42749 42751    1
 32815 42752 42753    1
 32816 42752 42754    1
 32817 42755 42756    1
 32818 42755 42757    1
 32819 42758 42759    1
 32820 42758 42760    1
 32821 42761 42762    1
 32822 42761 42763    1
 32823 42764 42765    1
 32824 42764 42766    1
 32825 42767 42768    1
 32826 42767 42769    1
 32827 42770 42771    1
 32828 42770 42772    1
 32829 42773 42774    1
 32830 42773 42775    1
 32831 42776 42777    1
 32832 42776 42778    1
 32833 42779 42780    1
 32834 42779 42781    1
 32835 42782 42783    1
 32836 42782 42784    1
 32837 42785 42786    1
 32838 42785 42787    1
 32839 42788 42789    1
 32840 42788 42790    1
 32841 42791 42792    1
 32842 42791 42793    1
 32843 42794 42795    1
 32844 42794 42796    1
 32845 42797 42798    1
 32846 42797 42799    1
 32847 42800 42801    1
 32848 42800 42802    1
 32849 42803 42804    1
 32850 42803 42805    1
 32851 42806 42807    1
 32852 42806 42808    1
 32853 42809 42810    1
 32854 42809 42811    1
 32855 42812 42813    1
 32856 42812 42814    1
 32857 42815 42816    1
 32858 42815 42817    1
 32859 42818 42819    1
 32860 42818 42820    1
 32861 42821 42822    1
 32862 42821 42823    1
 32863 42824 42825    1
 32864 42824 42826    1
 32865 42827 42828    1
 32866 42827 42829    1
 32867 42830 42831    1
 32868 42830 42832    1
 32869 42833 42834    1
 32870 42833 42835    1
 32871 42836 42837    1
 32872 42836 42838    1
 32873 42839 42840    1
 32874 42839 42841    1
 32875 42842 42843    1
 32876 42842 42844    1
 32877 42845 42846    1
 32878 42845 42847    1
 32879 42848 42849    1
 32880 42848 42850    1
 32881 42851 42852    1
 32882 42851 42853    1
 32883 42854 42855    1
 32884 42854 42856    1
 32885 42857 42858    1
 32886 42857 42859    1
 32887 42860 42861    1
 32888 42860 42862    1
 32889 42863 42864    1
 32890 42863 42865    1
 32891 42866 42867    1
 32892 42866 42868    1
 32893 42869 42870    1
 32894 42869 42871    1
 32895 42872 42873    1
 32896 42872 42874    1
 32897 42875 42876    1
 32898 42875 42877    1
 32899 42878 42879    1
 32900 42878 42880    1
 32901 42881 42882    1
 32902 42881 42883    1
 32903 42884 42885    1
 32904 42884 42886    1
 32905 42887 42888    1
 32906 42887 42889    1
 32907 42890 42891    1
 32908 42890 42892    1
 32909 42893 42894    1
 32910 42893 42895    1
 32911 42896 42897    1
 32912 42896 42898    1
 32913 42899 42900    1
 32914 42899 42901    1
 32915 42902 42903    1
 32916 42902 42904    1
 32917 42905 42906    1
 32918 42905 42907    1
 32919 42908 42909    1
 32920 42908 42910    1
 32921 42911 42912    1
 32922 42911 42913    1
 32923 42914 42915    1
 32924 42914 42916    1
 32925 42917 42918    1
 32926 42917 42919    1
 32927 42920 42921    1
 32928 42920 42922    1
 32929 42923 42924    1
 32930 42923 42925    1
 32931 42926 42927    1
 32932 42926 42928    1
 32933 42929 42930    1
 32934 42929 42931    1
 32935 42932 42933    1
 32936 42932 42934    1
 32937 42935 42936    1
 32938 42935 42937    1
 32939 42938 42939    1
 32940 42938 42940    1
 32941 42941 42942    1
 32942 42941 42943    1
 32943 42944 42945    1
 32944 42944 42946    1
 32945 42947 42948    1
 32946 42947 42949    1
 32947 42950 42951    1
 32948 42950 42952    1
 32949 42953 42954    1
 32950 42953 42955    1
 32951 42956 42957    1
 32952 42956 42958    1
 32953 42959 42960    1
 32954 42959 42961    1
 32955 42962 42963    1
 32956 42962 42964    1
 32957 42965 42966    1
 32958 42965 42967    1
 32959 42968 42969    1
 32960 42968 42970    1
 32961 42971 42972    1
 32962 42971 42973    1
 32963 42974 42975    1
 32964 42974 42976    1
 32965 42977 42978    1
 32966 42977 42979    1
 32967 42980 42981    1
 32968 42980 42982    1
 32969 42983 42984    1
 32970 42983 42985    1
 32971 42986 42987    1
 32972 42986 42988    1
 32973 42989 42990    1
 32974 42989 42991    1
 32975 42992 42993    1
 32976 42992 42994    1
 32977 42995 42996    1
 32978 42995 42997    1
 32979 42998 42999    1
 32980 42998 43000    1
