@<TRIPOS>MOLECULE
poly_ob.pdb
 650 649 0 0 0
SMALL
GASTEIGER

@<TRIPOS>ATOM
      1  O65       28.8740   12.2690   74.0320 O.2     1  MOL1       -0.2510
      2  O65       28.9130   12.7680   71.9120 O.3     1  MOL1       -0.4806
      3  C65       28.4470   12.9890   73.1690 C.2     1  MOL1        0.3047
      4  C65       27.3760   14.1690   73.0620 C.3     1  MOL1        0.0448
      5  C65       26.9090   15.4110   73.9530 C.3     1  MOL1       -0.0430
      6  C65       26.6210   16.9840   73.5710 C.3     1  MOL1       -0.0515
      7  C65       26.4530   17.9580   74.8940 C.3     1  MOL1       -0.0403
      8  S65       30.4790   21.6640   74.3900 S.3     1  MOL1       -0.0928
      9  C65       28.5670   21.4500   75.1150 C.3     1  MOL1        0.0050
     10  C66       27.1170   20.6800   74.8680 C.3     1  MOL1       -0.0305
     11  C66       33.6010   16.0810   62.3550 C.2     1  MOL1        0.3129
     12  C66       34.4420   16.9170   61.2750 C.3     1  MOL1        0.0622
     13  C66       35.6860   17.7370   61.6620 C.3     1  MOL1       -0.0370
     14  C66       35.1100   16.0170   60.2740 C.3     1  MOL1       -0.0497
     15  O66       34.0150   15.2230   63.0820 O.2     1  MOL1       -0.2502
     16  O66       32.2800   16.4920   62.3350 O.3     1  MOL1       -0.4605
     17  C66       31.0910   16.0400   63.1050 C.3     1  MOL1        0.1290
     18  C66       30.0530   17.0270   63.7430 C.3     1  MOL1        0.1341
     19  C66       30.7400   17.5300   64.9490 C.3     1  MOL1       -0.0244
     20  C67       26.1750   23.4930   67.0380 C.3     1  MOL1        0.0162
     21  C67       27.0720   24.2900   68.1520 C.3     1  MOL1       -0.0305
     22  C67       28.1610   25.4190   68.5390 C.3     1  MOL1        0.0050
     23  S67       28.1720   27.2350   68.0380 S.3     1  MOL1       -0.0928
     24  C67       25.7560   22.7750   65.5650 C.3     1  MOL1       -0.0403
     25  C67       25.7870   22.1020   64.0730 C.3     1  MOL1       -0.0515
     26  C67       26.4410   21.1390   62.9440 C.3     1  MOL1       -0.0429
     27  C67       27.2040   19.7550   62.6160 C.3     1  MOL1        0.0450
     28  C67       27.8390   18.3550   63.0750 C.2     1  MOL1        0.3074
     29  O67       29.1800   18.2050   63.3330 O.3     1  MOL1       -0.4582
     30  O68       27.1100   17.4190   63.0840 O.2     1  MOL1       -0.2508
     31  C68       26.7180   19.4780   75.7130 C.3     1  MOL1        0.0162
     32  C68       36.8840   23.5820   59.8260 C.2     1  MOL1        0.3344
     33  C68       37.0370   24.6130   58.7050 C.2     1  MOL1        0.0264
     34  C68       36.7760   25.9170   58.8780 C.2     1  MOL1       -0.0890
     35  C68       37.4120   24.2650   57.2890 C.3     1  MOL1       -0.0335
     36  O68       37.1730   22.4340   59.6030 O.2     1  MOL1       -0.2453
     37  O68       36.4160   23.9620   61.0590 O.3     1  MOL1       -0.4577
     38  C68       35.7910   23.3920   62.2890 C.3     1  MOL1        0.1293
     39  C68       34.3050   23.5220   62.8940 C.3     1  MOL1        0.1341
     40  C69       34.6400   22.9800   64.3150 C.3     1  MOL1       -0.0244
     41  C69       30.0570   29.5520   67.6700 C.3     1  MOL1        0.0162
     42  C69       29.2250   30.8320   67.6820 C.3     1  MOL1       -0.0313
     43  C69       29.7090   31.6160   66.4890 C.3     1  MOL1       -0.0056
     44  S69       28.4610   32.0620   65.3050 S.3     1  MOL1       -0.1641
     45  C69       31.6240   29.7570   67.0990 C.3     1  MOL1       -0.0403
     46  C69       32.5450   29.2010   65.7880 C.3     1  MOL1       -0.0515
     47  C69       33.0120   28.4450   64.3400 C.3     1  MOL1       -0.0429
     48  C69       33.0050   27.4520   62.9350 C.3     1  MOL1        0.0450
     49  C69       32.5970   25.9420   62.2490 C.2     1  MOL1        0.3074
     50  O70       33.2380   24.6300   62.4940 O.3     1  MOL1       -0.4582
     51  O70       31.7280   25.9000   61.4450 O.2     1  MOL1       -0.2508
     52  C70       29.4250   32.4080   63.7790 C.3     1  MOL1       -0.0181
     53  S70       29.5950   28.3960   69.0520 S.3     1  MOL1       -0.0897
     54  C70       27.9400   10.1150   69.5320 C.2     1  MOL1        0.3344
     55  C70       26.7850    9.2370   69.5580 C.2     1  MOL1        0.0264
     56  C70       25.6150    9.7080   69.0830 C.2     1  MOL1       -0.0890
     57  C70       27.0070    7.8390   70.0110 C.3     1  MOL1       -0.0335
     58  O70       29.0160    9.8270   70.0040 O.2     1  MOL1       -0.2453
     59  O70       27.8110   11.2930   68.8950 O.3     1  MOL1       -0.4577
     60  C71       28.7510   11.5830   67.8870 C.3     1  MOL1        0.1293
     61  C71       30.0820   12.0380   68.3690 C.3     1  MOL1        0.1341
     62  C71       30.9340   12.4520   67.1770 C.3     1  MOL1       -0.0244
     63  S71       31.3230   20.7020   72.7000 S.3     1  MOL1       -0.0897
     64  C71       30.3080   19.4400   71.6200 C.3     1  MOL1        0.0162
     65  C71       28.7890   19.2980   71.0460 C.3     1  MOL1       -0.0305
     66  C71       27.4520   19.9430   70.3850 C.3     1  MOL1        0.0050
     67  S71       26.3760   21.0840   69.3870 S.3     1  MOL1       -0.0928
     68  C71       31.4740   18.8390   70.8460 C.3     1  MOL1       -0.0403
     69  C71       31.3520   17.4380   70.2120 C.3     1  MOL1       -0.0515
     70  C72       31.7740   15.9920   70.5980 C.3     1  MOL1       -0.0429
     71  C72       30.9110   14.6980   70.6670 C.3     1  MOL1        0.0450
     72  C72       30.0370   14.1800   69.5400 C.2     1  MOL1        0.3074
     73  O72       30.1770   12.8410   69.5540 O.3     1  MOL1       -0.4582
     74  O72       29.4150   14.7910   68.7350 O.2     1  MOL1       -0.2508
     75  S72       25.3270   22.3770   68.2910 S.3     1  MOL1       -0.0897
     76  C72       46.2790   18.5870   49.7830 C.3     1  MOL1       -0.0559
     77  C72       44.9620   18.7940   50.4890 C.3     1  MOL1       -0.0533
     78  C72       44.3640   20.1300   50.9410 C.3     1  MOL1       -0.0531
     79  C72       43.0720   19.7480   51.6740 C.3     1  MOL1       -0.0531
     80  C73       41.7660   20.5400   51.7530 C.3     1  MOL1       -0.0531
     81  C73       40.5860   19.5510   51.9710 C.3     1  MOL1       -0.0531
     82  C73       39.8490   19.8430   53.2680 C.3     1  MOL1       -0.0531
     83  C73       39.6150   18.7600   54.3180 C.3     1  MOL1       -0.0530
     84  C73       38.8700   19.4870   55.4240 C.3     1  MOL1       -0.0500
     85  C73       39.0070   19.2990   56.9110 C.3     1  MOL1       -0.0185
     86  C73       37.9120   20.0910   57.5360 C.3     1  MOL1        0.0925
     87  C73       46.4110   17.0850   49.4830 C.3     1  MOL1       -0.0653
     88  C73       37.5600   19.4360   61.0610 C.3     1  MOL1        0.0537
     89  C73       38.3300   19.9040   59.8560 C.2     1  MOL1        0.3099
     90  O74       37.5840   19.5450   58.7950 O.3     1  MOL1       -0.4644
     91  O74       39.3410   20.5460   59.7100 O.2     1  MOL1       -0.2505
     92  C74       38.1870   19.0360   62.4090 C.3     1  MOL1       -0.0523
     93  C74       36.4580   18.4540   60.5460 C.3     1  MOL1       -0.0394
     94  C74       33.5110   17.7420   60.4500 C.3     1  MOL1       -0.0497
     95  O74       15.0600   27.2300   89.7830 O.2     1  MOL1       -0.2510
     96  O74       17.0110   26.5650   90.7060 O.3     1  MOL1       -0.4806
     97  C74       15.8310   26.3640   90.0590 C.2     1  MOL1        0.3047
     98  C74       15.7380   24.9140   89.6530 C.3     1  MOL1        0.0448
     99  C74       14.3620   24.2150   89.6100 C.3     1  MOL1       -0.0430
    100  C75       14.2300   23.6060   88.2330 C.3     1  MOL1       -0.0515
    101  C75       13.3240   22.4290   87.9140 C.3     1  MOL1       -0.0403
    102  S75       16.2420   20.4580   84.2880 S.3     1  MOL1       -0.0928
    103  C75       15.0210   21.7100   84.5780 C.3     1  MOL1        0.0050
    104  C75       14.9000   22.0770   86.0160 C.3     1  MOL1       -0.0305
    105  C75       22.7870   26.3970   76.0000 C.2     1  MOL1        0.3129
    106  C75       22.5780   27.8700   76.3970 C.3     1  MOL1        0.0622
    107  C75       21.9060   27.8720   77.7530 C.3     1  MOL1       -0.0370
    108  C75       23.9900   28.3360   76.7490 C.3     1  MOL1       -0.0497
    109  O75       23.9030   26.0080   75.8030 O.2     1  MOL1       -0.2502
    110  O76       21.6750   25.5490   76.0290 O.3     1  MOL1       -0.4605
    111  C76       20.5080   25.7440   75.2090 C.3     1  MOL1        0.1290
    112  C76       19.4860   24.6280   74.9590 C.3     1  MOL1        0.1341
    113  C76       19.6280   23.1780   74.5150 C.3     1  MOL1       -0.0244
    114  C76       19.9530   19.6790   78.5200 C.3     1  MOL1        0.0162
    115  C76       20.5480   18.4490   77.5290 C.3     1  MOL1       -0.0305
    116  C76       21.3760   17.2630   76.7150 C.3     1  MOL1        0.0050
    117  S76       23.0460   16.4910   76.5220 S.3     1  MOL1       -0.0928
    118  C76       19.5130   20.9240   77.7590 C.3     1  MOL1       -0.0403
    119  C76       19.6090   22.2800   78.5680 C.3     1  MOL1       -0.0515
    120  C77       18.5520   23.4330   78.5950 C.3     1  MOL1       -0.0429
    121  C77       17.3540   23.6580   77.6500 C.3     1  MOL1        0.0450
    122  C77       17.5640   24.1520   76.3050 C.2     1  MOL1        0.3074
    123  O77       18.8740   24.4090   76.2260 O.3     1  MOL1       -0.4582
    124  O77       16.7530   24.2930   75.4190 O.2     1  MOL1       -0.2508
    125  S77       13.3120   19.9560   86.6630 S.3     1  MOL1       -0.0897
    126  C77       13.5230   21.7710   86.5490 C.3     1  MOL1        0.0162
    127  C77       27.2470    9.0430   76.3870 C.2     1  MOL1        0.3344
    128  C77       27.9480    7.8440   76.0220 C.2     1  MOL1        0.0264
    129  C77       28.0120    7.4820   74.7320 C.2     1  MOL1       -0.0890
    130  C78       28.4910    7.1030   77.1750 C.3     1  MOL1       -0.0335
    131  O78       26.8050    9.2230   77.5010 O.2     1  MOL1       -0.2453
    132  O78       27.1320    9.9730   75.4220 O.3     1  MOL1       -0.4577
    133  C78       26.1950   10.9860   75.6540 C.3     1  MOL1        0.1293
    134  C78       26.6640   12.3580   75.8900 C.3     1  MOL1        0.1341
    135  C78       25.3280   13.1980   75.6340 C.3     1  MOL1       -0.0244
    136  C78       25.5320   17.6450   78.3940 C.3     1  MOL1        0.0162
    137  C78       25.7230   18.7390   79.4790 C.3     1  MOL1       -0.0305
    138  C78       27.1010   19.1340   79.9160 C.3     1  MOL1        0.0050
    139  S78       27.5890   20.5770   79.0240 S.3     1  MOL1       -0.0928
    140  C79       25.5460   16.2530   78.9640 C.3     1  MOL1       -0.0403
    141  C79       27.0350   15.9610   79.4390 C.3     1  MOL1       -0.0515
    142  C79       27.9110   14.6350   79.8370 C.3     1  MOL1       -0.0429
    143  C79       28.7030   13.3810   79.0880 C.3     1  MOL1        0.0450
    144  C79       28.2530   12.2170   78.0610 C.2     1  MOL1        0.3074
    145  O79       27.7640   12.6870   76.8610 O.3     1  MOL1       -0.4582
    146  O79       28.2900   11.0710   78.4050 O.2     1  MOL1       -0.2508
    147  S79       27.7210   19.5110   77.2860 S.3     1  MOL1       -0.0897
    148  S79       24.4790   17.8960   76.8660 S.3     1  MOL1       -0.0897
    149  C79       13.8540   25.1590   85.4580 C.2     1  MOL1        0.3344
    150  C80       12.6360   25.0790   86.2760 C.2     1  MOL1        0.0264
    151  C80       11.7470   24.2670   85.7460 C.2     1  MOL1       -0.0890
    152  C80       12.3910   25.6880   87.6330 C.3     1  MOL1       -0.0335
    153  O80       14.8470   25.6880   85.8840 O.2     1  MOL1       -0.2453
    154  O80       13.9100   24.6470   84.1760 O.3     1  MOL1       -0.4577
    155  C80       14.8950   25.3340   83.4140 C.3     1  MOL1        0.1293
    156  C80       16.1940   24.6830   83.2440 C.3     1  MOL1        0.1341
    157  C80       16.9200   25.3770   82.0720 C.3     1  MOL1       -0.0244
    158  S80       15.9170   19.0040   85.6970 S.3     1  MOL1       -0.0897
    159  C80       17.5250   18.2460   85.3500 C.3     1  MOL1        0.0162
    160  C81       17.3310   17.6210   83.9390 C.3     1  MOL1       -0.0305
    161  C81       18.2750   17.8340   82.7680 C.3     1  MOL1        0.0050
    162  S81       17.7050   19.2210   81.6870 S.3     1  MOL1       -0.0928
    163  C81       18.6030   19.3100   85.5720 C.3     1  MOL1       -0.0403
    164  C81       18.4520   20.3480   86.7170 C.3     1  MOL1       -0.0515
    165  C81       18.7730   21.8640   86.4120 C.3     1  MOL1       -0.0429
    166  C81       18.3990   23.2950   85.9080 C.3     1  MOL1        0.0450
    167  C81       17.9150   23.7420   84.5520 C.2     1  MOL1        0.3074
    168  O81       16.7320   24.3870   84.5600 O.3     1  MOL1       -0.4582
    169  O81       18.5960   23.7320   83.5730 O.2     1  MOL1       -0.2508
    170  S82       18.5740   19.8770   79.8950 S.3     1  MOL1       -0.0897
    171  C82       17.5670   42.2500   81.0150 C.3     1  MOL1       -0.0559
    172  C82       18.6660   41.2550   81.2670 C.3     1  MOL1       -0.0533
    173  C82       18.0300   39.9550   81.7420 C.3     1  MOL1       -0.0531
    174  C82       18.0990   38.9260   80.6140 C.3     1  MOL1       -0.0531
    175  C82       17.4210   37.5390   80.7680 C.3     1  MOL1       -0.0531
    176  C82       18.4210   36.6090   80.1520 C.3     1  MOL1       -0.0531
    177  C82       18.6710   35.1220   80.1970 C.3     1  MOL1       -0.0531
    178  C82       17.8150   33.8970   80.0970 C.3     1  MOL1       -0.0530
    179  C82       17.8850   33.0560   81.3420 C.3     1  MOL1       -0.0500
    180  C83       19.3000   32.7310   81.8270 C.3     1  MOL1       -0.0185
    181  C83       20.4270   32.7360   80.8030 C.3     1  MOL1        0.0925
    182  C83       18.0210   43.5480   80.4630 C.3     1  MOL1       -0.0653
    183  C83       21.0790   30.1180   78.3950 C.3     1  MOL1        0.0537
    184  C83       21.3640   31.4080   79.0850 C.2     1  MOL1        0.3099
    185  O83       20.3040   31.6680   79.8780 O.3     1  MOL1       -0.4644
    186  O83       22.3460   32.1110   78.9830 O.2     1  MOL1       -0.2505
    187  C83       19.7890   29.3990   78.7930 C.3     1  MOL1       -0.0523
    188  C83       22.1610   29.0950   78.6410 C.3     1  MOL1       -0.0394
    189  C83       21.9350   28.6600   75.2600 C.3     1  MOL1       -0.0497
    190  O84       11.1500   -0.1400   96.0980 O.2     1  MOL1       -0.2510
    191  O84       12.7620    1.4240   96.1840 O.3     1  MOL1       -0.4806
    192  C84       11.4700    1.0020   96.0270 C.2     1  MOL1        0.3047
    193  C84       10.5660    2.1910   95.7090 C.3     1  MOL1        0.0448
    194  C84        9.0320    1.8530   95.6030 C.3     1  MOL1       -0.0430
    195  C84        7.7840    2.8040   95.1840 C.3     1  MOL1       -0.0516
    196  C84        6.5590    3.7960   94.7710 C.3     1  MOL1       -0.0411
    197  S84        7.7320    8.9340   93.9200 S.3     1  MOL1       -0.0928
    198  C84        6.1720    8.0360   94.2410 C.3     1  MOL1        0.0049
    199  C84        6.6970    6.5900   94.0620 C.3     1  MOL1       -0.0313
    200  C85       17.7120    7.0030   86.6880 C.2     1  MOL1        0.3129
    201  C85       17.4560    6.8820   85.2070 C.3     1  MOL1        0.0622
    202  C85       17.8290    8.0540   84.2560 C.3     1  MOL1       -0.0370
    203  C85       17.7880    5.4750   84.8740 C.3     1  MOL1       -0.0497
    204  O85       18.3090    6.2160   87.3820 O.2     1  MOL1       -0.2502
    205  O85       17.0090    8.0750   87.1510 O.3     1  MOL1       -0.4605
    206  C85       16.5740    7.9310   88.4910 C.3     1  MOL1        0.1290
    207  C85       15.1160    7.9750   88.7170 C.3     1  MOL1        0.1341
    208  C85       15.0100    7.6190   90.1830 C.3     1  MOL1       -0.0244
    209  C85       14.8950   13.2500   91.1200 C.3     1  MOL1        0.0162
    210  C86       14.9940   14.1840   92.3230 C.3     1  MOL1       -0.0305
    211  C86       14.3960   15.5270   91.9600 C.3     1  MOL1        0.0050
    212  S86       12.9620   16.1560   92.7990 S.3     1  MOL1       -0.0928
    213  C86       16.2300   12.6390   90.8570 C.3     1  MOL1       -0.0403
    214  C86       16.2560   11.3360   90.0760 C.3     1  MOL1       -0.0515
    215  C86       15.7430   11.5530   88.6500 C.3     1  MOL1       -0.0429
    216  C86       14.2280   11.4100   88.4950 C.3     1  MOL1        0.0450
    217  C86       13.8650   10.0800   89.0410 C.2     1  MOL1        0.3074
    218  O86       14.7700    9.3140   88.4170 O.3     1  MOL1       -0.4582
    219  O86       13.0110    9.7310   89.8170 O.2     1  MOL1       -0.2508
    220  S87        4.2390    5.3420   94.6330 S.3     1  MOL1       -0.1607
    221  C87        6.0480    5.3220   94.7020 C.3     1  MOL1        0.0058
    222  C87        3.8040    6.8080   95.5320 C.3     1  MOL1       -0.0178
    223  C87       20.2700   15.5410   84.4830 C.2     1  MOL1        0.3344
    224  C87       20.9910   16.6600   85.0980 C.2     1  MOL1        0.0264
    225  C87       20.6260   17.0390   86.3290 C.2     1  MOL1       -0.0890
    226  C87       22.0720   17.3530   84.3140 C.3     1  MOL1       -0.0335
    227  O87       20.5270   15.2310   83.3410 O.2     1  MOL1       -0.2453
    228  O87       19.2750   14.8700   85.1640 O.3     1  MOL1       -0.4577
    229  C87       18.5720   13.9070   84.3650 C.3     1  MOL1        0.1293
    230  C88       17.1590   13.6040   84.8240 C.3     1  MOL1        0.1341
    231  C88       16.6430   12.1920   85.2520 C.3     1  MOL1       -0.0244
    232  C88       12.4440   17.8110   90.3850 C.3     1  MOL1        0.0162
    233  C88       11.5200   19.0250   90.0750 C.3     1  MOL1       -0.0305
    234  C88       11.4890   20.0180   88.9310 C.3     1  MOL1        0.0050
    235  S88       11.4000   19.5830   87.1760 S.3     1  MOL1       -0.0928
    236  C88       13.2360   17.2300   89.1970 C.3     1  MOL1       -0.0403
    237  C88       14.7530   17.0910   89.2280 C.3     1  MOL1       -0.0515
    238  C88       15.1730   15.7790   88.5810 C.3     1  MOL1       -0.0429
    239  C88       15.2270   15.9060   87.0810 C.3     1  MOL1        0.0450
    240  C89       15.5830   14.5680   86.5010 C.2     1  MOL1        0.3074
    241  O89       16.6740   14.6820   85.6820 O.3     1  MOL1       -0.4582
    242  O89       14.9520   13.5750   86.7390 O.2     1  MOL1       -0.2508
    243  S89       13.3060   17.9720   91.9790 S.3     1  MOL1       -0.0897
    244  C89       13.9360    0.5270   92.4070 C.2     1  MOL1        0.3344
    245  C89       12.9160   -0.5120   92.4310 C.2     1  MOL1        0.0264
    246  C89       11.8900   -0.2030   93.2130 C.2     1  MOL1       -0.0890
    247  C89       12.9960   -1.7780   91.6490 C.3     1  MOL1       -0.0335
    248  O89       15.0200    0.3600   91.8910 O.2     1  MOL1       -0.2453
    249  O89       13.6090    1.7460   92.9710 O.3     1  MOL1       -0.4577
    250  C90       13.9620    2.8980   92.2050 C.3     1  MOL1        0.1293
    251  C90       14.3400    3.9870   93.1440 C.3     1  MOL1        0.1341
    252  C90       15.5830    4.8590   92.8150 C.3     1  MOL1       -0.0244
    253  S90        7.8860   10.9330   94.4110 S.3     1  MOL1       -0.0897
    254  C90        9.4380   10.9670   93.4670 C.3     1  MOL1        0.0162
    255  C90        9.9510   12.2740   92.8680 C.3     1  MOL1       -0.0305
    256  C90       11.1040   11.8820   91.9710 C.3     1  MOL1        0.0050
    257  S90       12.0770   13.2430   91.3380 S.3     1  MOL1       -0.0928
    258  C90       10.5290   10.2280   94.2260 C.3     1  MOL1       -0.0403
    259  C90       10.8760    8.9330   93.4780 C.3     1  MOL1       -0.0515
    260  C91       12.2650    8.3340   93.6120 C.3     1  MOL1       -0.0429
    261  C91       12.3220    6.8250   93.8420 C.3     1  MOL1        0.0450
    262  C91       13.0030    5.8610   92.9090 C.2     1  MOL1        0.3074
    263  O91       13.2730    4.7790   93.6730 O.3     1  MOL1       -0.4582
    264  O91       13.3100    5.9240   91.7520 O.2     1  MOL1       -0.2508
    265  S91       13.6750   12.0090   91.4060 S.3     1  MOL1       -0.0897
    266  C91       25.1540    0.9900   74.1930 C.3     1  MOL1       -0.0559
    267  C91       24.5000    2.3040   73.8230 C.3     1  MOL1       -0.0533
    268  C91       23.8320    2.7620   75.1230 C.3     1  MOL1       -0.0531
    269  C91       22.7520    3.7230   74.8070 C.3     1  MOL1       -0.0531
    270  C92       22.1330    4.5510   75.8850 C.3     1  MOL1       -0.0531
    271  C92       21.2880    5.5670   75.1170 C.3     1  MOL1       -0.0531
    272  C92       20.9760    6.9060   75.7670 C.3     1  MOL1       -0.0531
    273  C92       21.2280    7.1310   77.2610 C.3     1  MOL1       -0.0530
    274  C92       21.6860    8.5200   77.5960 C.3     1  MOL1       -0.0500
    275  C92       20.8870    9.0730   78.7320 C.3     1  MOL1       -0.0185
    276  C92       21.5370    9.9620   79.7560 C.3     1  MOL1        0.0925
    277  C92       26.4260    0.3580   73.6970 C.3     1  MOL1       -0.0653
    278  C92       20.3990    8.1700   82.7030 C.3     1  MOL1        0.0537
    279  C92       20.7070    9.4720   82.0410 C.2     1  MOL1        0.3099
    280  O93       21.3760    9.1750   80.9250 O.3     1  MOL1       -0.4644
    281  O93       20.4290   10.5700   82.4390 O.2     1  MOL1       -0.2505
    282  C93       21.1120    7.0160   81.9490 C.3     1  MOL1       -0.0523
    283  C93       18.8380    8.1130   83.0600 C.3     1  MOL1       -0.0394
    284  C93       15.9490    6.9660   85.1740 C.3     1  MOL1       -0.0497
    285 5H93       28.4240   13.2890   71.2740 H       1  MOL1        0.2951
    286 6H93       26.5140   13.5200   73.0040 H       1  MOL1        0.0377
    287 7H93       27.6110   14.4560   72.0610 H       1  MOL1        0.0377
    288 8H93       27.5100   15.3780   74.8320 H       1  MOL1        0.0270
    289 9H93       25.9010   15.1480   74.3150 H       1  MOL1        0.0270
    290 0H94       25.5620   16.9050   73.2590 H       1  MOL1        0.0266
    291 1H94       27.0070   17.4290   72.6630 H       1  MOL1        0.0266
    292 2H94       26.2800   17.1850   75.6330 H       1  MOL1        0.0276
    293 3H94       25.4700   18.3300   74.5370 H       1  MOL1        0.0276
    294 4H94       28.3220   22.5040   75.0970 H       1  MOL1        0.0385
    295 5H94       28.7740   21.2700   76.1480 H       1  MOL1        0.0385
    296 6H94       26.6540   20.3790   73.9120 H       1  MOL1        0.0284
    297 7H94       26.4530   21.4660   75.2010 H       1  MOL1        0.0284
    298 8H94       36.2850   17.0130   62.1950 H       1  MOL1        0.0276
    299 9H94       35.6190   18.5790   62.3280 H       1  MOL1        0.0276
    300 0H95       34.8670   14.9960   60.4000 H       1  MOL1        0.0240
    301 1H95       36.1880   16.0100   60.2780 H       1  MOL1        0.0240
    302 2H95       34.8350   16.3060   59.2680 H       1  MOL1        0.0240
    303 3H95       30.5280   15.2950   62.5350 H       1  MOL1        0.0735
    304 4H95       31.4530   15.4730   63.9840 H       1  MOL1        0.0735
    305 5H95       29.3930   16.3170   64.1890 H       1  MOL1        0.0765
    306 6H95       29.9580   18.1180   65.3830 H       1  MOL1        0.0266
    307 7H95       31.5720   18.2110   64.8860 H       1  MOL1        0.0266
    308 8H95       31.0910   16.6600   65.4860 H       1  MOL1        0.0266
    309 9H95       25.2460   24.1010   67.0610 H       1  MOL1        0.0421
    310 0H96       27.5290   23.4900   68.7700 H       1  MOL1        0.0284
    311 1H96       26.2040   24.5740   68.7630 H       1  MOL1        0.0284
    312 2H96       29.1840   25.0340   68.4910 H       1  MOL1        0.0385
    313 3H96       27.9760   25.3480   69.6010 H       1  MOL1        0.0385
    314 4H96       25.5280   21.8490   66.0510 H       1  MOL1        0.0276
    315 5H96       24.7360   23.1720   65.4860 H       1  MOL1        0.0276
    316 6H96       25.6650   22.9640   63.3870 H       1  MOL1        0.0266
    317 7H96       24.7690   21.6860   64.1620 H       1  MOL1        0.0266
    318 8H96       26.9890   21.8460   62.2840 H       1  MOL1        0.0270
    319 9H96       25.5170   20.9750   62.3580 H       1  MOL1        0.0270
    320 0H97       27.4180   19.8970   61.5440 H       1  MOL1        0.0377
    321 1H97       26.2370   19.2280   62.5610 H       1  MOL1        0.0377
    322 2H97       25.6710   19.7420   75.9150 H       1  MOL1        0.0421
    323 3H97       36.7910   26.6100   58.0380 H       1  MOL1        0.0540
    324 4H97       36.3930   26.3400   59.7990 H       1  MOL1        0.0540
    325 5H97       38.2620   24.8680   56.9520 H       1  MOL1        0.0280
    326 6H97       36.6160   24.5730   56.6110 H       1  MOL1        0.0280
    327 7H97       37.5650   23.1920   57.1570 H       1  MOL1        0.0280
    328 8H97       36.0640   22.3400   62.3660 H       1  MOL1        0.0735
    329 9H97       36.3660   23.9460   63.0400 H       1  MOL1        0.0735
    330 0H98       33.6520   22.7760   62.5300 H       1  MOL1        0.0765
    331 1H98       35.2510   22.0770   64.1400 H       1  MOL1        0.0266
    332 2H98       33.8220   22.6020   64.9300 H       1  MOL1        0.0266
    333 3H98       35.2580   23.6260   64.9510 H       1  MOL1        0.0266
    334 4H98       29.3490   29.1340   66.9780 H       1  MOL1        0.0421
    335 5H98       29.3670   31.4070   68.5800 H       1  MOL1        0.0284
    336 6H98       28.1520   30.5840   67.5980 H       1  MOL1        0.0284
    337 7H98       30.3170   30.9830   65.8400 H       1  MOL1        0.0377
    338 8H98       30.3080   32.4110   66.9310 H       1  MOL1        0.0377
    339 9H98       31.7800   30.8470   67.0180 H       1  MOL1        0.0276
    340 0H99       32.3670   29.5300   67.8650 H       1  MOL1        0.0276
    341 1H99       33.0170   28.4160   66.3850 H       1  MOL1        0.0266
    342 2H99       33.3470   29.9700   65.7720 H       1  MOL1        0.0266
    343 3H99       33.9760   28.1070   64.7840 H       1  MOL1        0.0270
    344 4H99       33.4870   29.3130   63.9710 H       1  MOL1        0.0270
    345 5H99       33.9100   27.8060   62.4990 H       1  MOL1        0.0377
    346 6H99       32.2360   27.8410   62.3020 H       1  MOL1        0.0377
    347 7H99       29.5570   33.4650   63.5090 H       1  MOL1        0.0340
    348 8H99       28.9220   32.0020   62.9100 H       1  MOL1        0.0340
    349 9H99       30.3930   31.9200   63.8060 H       1  MOL1        0.0340
    350  H10       24.7110    9.1110   69.0740 H       1  MOL1        0.0540
    351  H10       25.5230   10.6960   68.6450 H       1  MOL1        0.0540
    352  H10       27.1340    7.8190   71.0920 H       1  MOL1        0.0280
    353  H10       27.8850    7.3590   69.5630 H       1  MOL1        0.0280
    354  H10       26.1450    7.2360   69.7100 H       1  MOL1        0.0280
    355  H10       28.9470   10.6940   67.2800 H       1  MOL1        0.0735
    356  H10       28.2310   12.2480   67.1960 H       1  MOL1        0.0735
    357  H10       30.5320   11.1220   68.7430 H       1  MOL1        0.0765
    358  H10       31.8940   12.8990   67.4300 H       1  MOL1        0.0266
    359  H10       30.4210   13.1420   66.5010 H       1  MOL1        0.0266
    360  H10       31.1490   11.5420   66.6200 H       1  MOL1        0.0266
    361  H10       30.2020   18.5060   72.1070 H       1  MOL1        0.0421
    362  H10       29.0580   18.5420   70.3370 H       1  MOL1        0.0284
    363  H10       28.2680   18.7610   71.8500 H       1  MOL1        0.0284
    364  H10       26.7280   19.9960   71.2080 H       1  MOL1        0.0385
    365  H10       26.8670   19.0970   70.0010 H       1  MOL1        0.0385
    366  H10       32.2000   18.7640   71.6050 H       1  MOL1        0.0276
    367  H10       31.9660   19.5650   70.1910 H       1  MOL1        0.0276
    368  H10       31.9800   17.6280   69.3660 H       1  MOL1        0.0266
    369  H10       30.3550   17.3420   69.8780 H       1  MOL1        0.0266
    370  H10       32.3950   15.9320   71.4860 H       1  MOL1        0.0270
    371  H10       32.4910   15.7480   69.8160 H       1  MOL1        0.0270
    372  H10       30.3950   14.4560   71.5880 H       1  MOL1        0.0377
    373  H10       31.6270   13.9070   70.7450 H       1  MOL1        0.0377
    374  H10       47.0750   18.8930   50.4490 H       1  MOL1        0.0263
    375  H10       46.4040   19.2180   48.9060 H       1  MOL1        0.0263
    376  H10       45.1070   18.2090   51.3820 H       1  MOL1        0.0265
    377  H10       44.1990   18.2740   49.8970 H       1  MOL1        0.0265
    378  H10       44.1810   20.7770   50.0930 H       1  MOL1        0.0265
    379  H10       45.0370   20.6840   51.6120 H       1  MOL1        0.0265
    380  H10       43.3860   19.5840   52.7010 H       1  MOL1        0.0265
    381  H10       42.7750   18.7730   51.2780 H       1  MOL1        0.0265
    382  H10       41.5430   21.1200   50.8640 H       1  MOL1        0.0265
    383  H10       41.8270   21.2980   52.5510 H       1  MOL1        0.0265
    384  H10       40.9060   18.5000   51.9240 H       1  MOL1        0.0265
    385  H10       39.8710   19.6510   51.1440 H       1  MOL1        0.0265
    386  H10       38.8730   20.2720   53.0100 H       1  MOL1        0.0265
    387  H10       40.4060   20.6340   53.7940 H       1  MOL1        0.0265
    388  H10       40.5390   18.3650   54.7190 H       1  MOL1        0.0265
    389  H10       39.0580   17.8990   53.9220 H       1  MOL1        0.0265
    390  H10       37.8140   19.4130   55.2030 H       1  MOL1        0.0266
    391  H10       39.1120   20.5430   55.3120 H       1  MOL1        0.0266
    392  H10       39.9500   19.6940   57.2740 H       1  MOL1        0.0298
    393  H10       38.8670   18.2920   57.3080 H       1  MOL1        0.0298
    394  H10       37.0340   19.9170   56.9300 H       1  MOL1        0.0697
    395  H10       38.0910   21.1690   57.5890 H       1  MOL1        0.0697
    396  H10       45.5250   16.6880   48.9810 H       1  MOL1        0.0230
    397  H10       46.5490   16.5120   50.4040 H       1  MOL1        0.0230
    398  H10       47.2540   16.8240   48.8420 H       1  MOL1        0.0230
    399  H10       37.1100   20.4040   61.3080 H       1  MOL1        0.0411
    400  H10       39.2180   18.7210   62.3530 H       1  MOL1        0.0238
    401  H10       37.6460   18.2290   62.9040 H       1  MOL1        0.0238
    402  H10       38.1100   19.8390   63.1470 H       1  MOL1        0.0238
    403  H10       36.9190   17.7560   59.8590 H       1  MOL1        0.0273
    404  H10       35.7890   19.0370   59.9120 H       1  MOL1        0.0273
    405  H10       34.0580   18.5200   59.9260 H       1  MOL1        0.0240
    406  H10       32.7430   18.2250   61.0230 H       1  MOL1        0.0240
    407  H10       33.0490   17.1010   59.7230 H       1  MOL1        0.0240
    408  H10       17.4530   25.7240   90.8350 H       1  MOL1        0.2951
    409  H10       16.4070   24.3350   90.2810 H       1  MOL1        0.0377
    410  H10       16.1680   24.9730   88.6450 H       1  MOL1        0.0377
    411  H10       13.5190   24.8810   89.8370 H       1  MOL1        0.0270
    412  H10       14.3490   23.4240   90.3600 H       1  MOL1        0.0270
    413  H10       15.1720   23.1820   87.9640 H       1  MOL1        0.0266
    414  H10       14.2400   24.4440   87.5770 H       1  MOL1        0.0266
    415  H10       12.2650   22.5440   88.1070 H       1  MOL1        0.0276
    416  H10       13.7270   21.6900   88.5880 H       1  MOL1        0.0276
    417  H10       14.0450   21.5700   84.1150 H       1  MOL1        0.0385
    418  H10       15.4750   22.5570   84.0860 H       1  MOL1        0.0385
    419  H10       15.1090   23.1530   86.0560 H       1  MOL1        0.0284
    420  H10       15.6570   21.5900   86.6320 H       1  MOL1        0.0284
    421  H10       22.2690   26.9960   78.3000 H       1  MOL1        0.0276
    422  H10       20.8480   27.7460   77.6040 H       1  MOL1        0.0276
    423  H10       24.2460   27.8210   77.6840 H       1  MOL1        0.0240
    424  H10       24.1330   29.4030   76.9440 H       1  MOL1        0.0240
    425  H10       24.7030   28.0430   75.9790 H       1  MOL1        0.0240
    426  H10       20.7780   26.2370   74.2730 H       1  MOL1        0.0735
    427  H10       19.8830   26.4600   75.7280 H       1  MOL1        0.0735
    428  H10       18.7720   25.0800   74.2500 H       1  MOL1        0.0765
    429  H10       18.6110   22.8290   74.2770 H       1  MOL1        0.0266
    430  H10       19.9730   22.5700   75.3580 H       1  MOL1        0.0266
    431  H10       20.2450   22.9400   73.6620 H       1  MOL1        0.0266
    432  H10       20.7110   19.9960   79.1930 H       1  MOL1        0.0421
    433  H10       19.7970   18.2920   76.7870 H       1  MOL1        0.0284
    434  H10       20.7180   17.7830   78.3530 H       1  MOL1        0.0284
    435  H10       20.9340   17.2110   75.7200 H       1  MOL1        0.0385
    436  H10       20.8360   16.3780   77.1000 H       1  MOL1        0.0385
    437  H10       18.4920   20.7520   77.4940 H       1  MOL1        0.0276
    438  H10       20.0230   20.8900   76.7960 H       1  MOL1        0.0276
    439  H10       20.5680   22.8030   78.4870 H       1  MOL1        0.0266
    440  H10       19.6830   22.0360   79.6220 H       1  MOL1        0.0266
    441  H10       19.1450   24.3470   78.7090 H       1  MOL1        0.0270
    442  H10       18.0920   23.3770   79.5850 H       1  MOL1        0.0270
    443  H10       16.6380   24.3020   78.1680 H       1  MOL1        0.0377
    444  H10       16.8430   22.7260   77.4470 H       1  MOL1        0.0377
    445  H10       12.8020   22.1450   85.8310 H       1  MOL1        0.0421
    446  H10       27.4090    7.9730   73.9820 H       1  MOL1        0.0540
    447  H10       28.5620    6.6560   74.3060 H       1  MOL1        0.0540
    448  H10       29.5800    6.9610   77.1760 H       1  MOL1        0.0280
    449  H10       27.9630    6.1890   77.0870 H       1  MOL1        0.0280
    450  H11       28.1890    7.5620   78.1230 H       1  MOL1        0.0280
    451  H11       25.5730   11.0430   74.7470 H       1  MOL1        0.0735
    452  H11       25.5420   10.6860   76.4640 H       1  MOL1        0.0735
    453  H11       27.1420   12.6740   74.9900 H       1  MOL1        0.0765
    454  H11       25.2010   13.2040   74.5440 H       1  MOL1        0.0266
    455  H11       25.2380   14.2390   75.9530 H       1  MOL1        0.0266
    456  H11       24.3880   12.7590   75.9790 H       1  MOL1        0.0266
    457  H11       26.4450   17.6560   77.8660 H       1  MOL1        0.0421
    458  H11       25.2460   18.3350   80.3580 H       1  MOL1        0.0284
    459  H11       25.2400   19.6860   79.2830 H       1  MOL1        0.0284
    460  H11       27.8380   18.3950   79.6570 H       1  MOL1        0.0385
    461  H11       27.0950   19.4040   80.9810 H       1  MOL1        0.0385
    462  H11       25.0040   15.6390   78.2300 H       1  MOL1        0.0276
    463  H11       24.9120   16.0820   79.8180 H       1  MOL1        0.0276
    464  H11       26.9590   16.5360   80.3300 H       1  MOL1        0.0266
    465  H11       27.6760   16.6180   78.8500 H       1  MOL1        0.0266
    466  H11       27.2880   14.1620   80.5980 H       1  MOL1        0.0270
    467  H11       28.7360   15.0090   80.4450 H       1  MOL1        0.0270
    468  H11       28.9410   12.7820   79.9740 H       1  MOL1        0.0377
    469  H11       29.6890   13.7410   78.7570 H       1  MOL1        0.0377
    470  H11       10.8300   24.0190   86.2500 H       1  MOL1        0.0540
    471  H11       12.0430   23.7410   84.8470 H       1  MOL1        0.0540
    472  H11       13.2790   26.1020   88.1250 H       1  MOL1        0.0280
    473  H11       12.0120   24.9020   88.2940 H       1  MOL1        0.0280
    474  H11       11.6340   26.4600   87.5590 H       1  MOL1        0.0280
    475  H11       14.4940   25.5230   82.4470 H       1  MOL1        0.0735
    476  H11       15.0220   26.3650   83.7540 H       1  MOL1        0.0735
    477  H11       16.0470   23.7280   82.7930 H       1  MOL1        0.0765
    478  H11       16.5820   24.9030   81.1370 H       1  MOL1        0.0266
    479  H11       17.9920   25.1920   82.0390 H       1  MOL1        0.0266
    480  H11       16.6770   26.4410   81.9530 H       1  MOL1        0.0266
    481  H11       17.6520   17.4020   86.0370 H       1  MOL1        0.0421
    482  H11       17.2970   16.5300   84.1030 H       1  MOL1        0.0284
    483  H11       16.3390   17.8300   83.5190 H       1  MOL1        0.0284
    484  H11       18.1220   16.8730   82.2600 H       1  MOL1        0.0385
    485  H11       19.3050   17.9190   83.1280 H       1  MOL1        0.0385
    486  H11       18.4510   19.8720   84.6940 H       1  MOL1        0.0276
    487  H11       19.6270   18.9450   85.4680 H       1  MOL1        0.0276
    488  H11       19.2690   20.1310   87.4310 H       1  MOL1        0.0266
    489  H11       17.5340   20.1240   87.2610 H       1  MOL1        0.0266
    490  H11       19.4860   21.6820   85.6280 H       1  MOL1        0.0270
    491  H11       19.4240   22.1570   87.2440 H       1  MOL1        0.0270
    492  H11       19.4390   23.6220   85.8070 H       1  MOL1        0.0377
    493  H11       18.0430   24.0520   86.6090 H       1  MOL1        0.0377
    494  H11       16.9530   42.4120   81.9050 H       1  MOL1        0.0263
    495  H11       16.9330   41.8690   80.2310 H       1  MOL1        0.0263
    496  H11       19.3940   41.6520   81.9860 H       1  MOL1        0.0265
    497  H11       19.2040   41.1100   80.3150 H       1  MOL1        0.0265
    498  H11       17.0110   40.1700   82.0150 H       1  MOL1        0.0265
    499  H11       18.4070   39.6090   82.7080 H       1  MOL1        0.0265
    500  H11       19.1650   38.8070   80.3940 H       1  MOL1        0.0265
    501  H11       17.7540   39.4090   79.6980 H       1  MOL1        0.0265
    502  H11       16.5230   37.4070   80.1960 H       1  MOL1        0.0265
    503  H11       17.0320   37.3590   81.7690 H       1  MOL1        0.0265
    504  H11       19.3570   36.9140   80.5980 H       1  MOL1        0.0265
    505  H11       18.4800   36.9380   79.1060 H       1  MOL1        0.0265
    506  H11       19.1470   34.9310   81.1470 H       1  MOL1        0.0265
    507  H11       19.4960   35.0510   79.4800 H       1  MOL1        0.0265
    508  H11       18.3470   33.2150   79.4800 H       1  MOL1        0.0265
    509  H11       16.8500   33.9810   79.6260 H       1  MOL1        0.0265
    510  H11       17.3640   32.1370   81.1030 H       1  MOL1        0.0266
    511  H11       17.3840   33.6000   82.1220 H       1  MOL1        0.0266
    512  H11       19.3330   31.7550   82.3300 H       1  MOL1        0.0298
    513  H11       19.5170   33.4490   82.6270 H       1  MOL1        0.0298
    514  H11       21.3200   32.6040   81.3800 H       1  MOL1        0.0697
    515  H11       20.6120   33.6610   80.2570 H       1  MOL1        0.0697
    516  H11       17.1610   44.2170   80.5120 H       1  MOL1        0.0230
    517  H11       18.3070   43.4070   79.4140 H       1  MOL1        0.0230
    518  H11       18.8620   43.9430   81.0340 H       1  MOL1        0.0230
    519  H11       21.0600   30.3860   77.3340 H       1  MOL1        0.0411
    520  H11       20.0020   28.4740   79.3470 H       1  MOL1        0.0238
    521  H11       19.2410   29.0780   77.9270 H       1  MOL1        0.0238
    522  H11       19.0910   30.0130   79.3460 H       1  MOL1        0.0238
    523  H11       22.1050   28.7780   79.6990 H       1  MOL1        0.0273
    524  H11       23.1610   29.5210   78.5260 H       1  MOL1        0.0273
    525  H11       21.5840   29.6170   75.6440 H       1  MOL1        0.0240
    526  H11       21.1150   28.1400   74.7620 H       1  MOL1        0.0240
    527  H11       22.6310   28.9020   74.4550 H       1  MOL1        0.0240
    528  H11       12.8700    2.3610   96.0080 H       1  MOL1        0.2951
    529  H11       11.0210    2.6250   94.8020 H       1  MOL1        0.0377
    530  H11       10.7190    2.9250   96.5070 H       1  MOL1        0.0377
    531  H11        8.8360    1.4360   96.5900 H       1  MOL1        0.0270
    532  H11        8.8370    0.9880   95.0050 H       1  MOL1        0.0270
    533  H11        8.2980    3.1250   94.2950 H       1  MOL1        0.0266
    534  H11        7.9160    3.3020   96.1100 H       1  MOL1        0.0266
    535  H11        6.0290    3.6190   95.6770 H       1  MOL1        0.0276
    536  H11        6.0950    3.2270   93.9680 H       1  MOL1        0.0276
    537  H11        5.3810    8.3000   93.5330 H       1  MOL1        0.0385
    538  H11        5.8070    8.2160   95.2520 H       1  MOL1        0.0385
    539  H11        7.5820    6.6360   94.6850 H       1  MOL1        0.0284
    540  H11        7.0820    6.4680   93.0420 H       1  MOL1        0.0284
    541  H11       17.7810    8.9620   84.8770 H       1  MOL1        0.0276
    542  H11       16.9230    8.1970   83.6270 H       1  MOL1        0.0276
    543  H11       18.7320    5.2070   85.3080 H       1  MOL1        0.0240
    544  H11       17.8420    5.3020   83.8140 H       1  MOL1        0.0240
    545  H11       17.0400    4.8620   85.3830 H       1  MOL1        0.0240
    546  H11       16.9930    7.0310   88.9520 H       1  MOL1        0.0735
    547  H11       16.9240    8.7900   89.0720 H       1  MOL1        0.0735
    548  H11       14.5690    7.3260   88.0290 H       1  MOL1        0.0765
    549  H11       14.0890    7.9410   90.6670 H       1  MOL1        0.0266
    550  H12       15.8410    8.1090   90.6990 H       1  MOL1        0.0266
    551  H12       15.1280    6.5450   90.3310 H       1  MOL1        0.0266
    552  H12       14.6270   13.7750   90.2020 H       1  MOL1        0.0421
    553  H12       16.0600   14.3730   92.5320 H       1  MOL1        0.0284
    554  H12       14.5750   13.7340   93.2330 H       1  MOL1        0.0284
    555  H12       14.1280   15.5000   90.9020 H       1  MOL1        0.0385
    556  H12       15.1870   16.2700   92.0860 H       1  MOL1        0.0385
    557  H12       16.6980   12.4850   91.8240 H       1  MOL1        0.0276
    558  H12       16.7990   13.4240   90.3450 H       1  MOL1        0.0276
    559  H12       15.7010   10.5390   90.5850 H       1  MOL1        0.0266
    560  H12       17.2840   10.9690   90.1170 H       1  MOL1        0.0266
    561  H12       16.2150   10.8520   87.9400 H       1  MOL1        0.0270
    562  H12       16.0470   12.5530   88.3280 H       1  MOL1        0.0270
    563  H12       13.9920   11.3810   87.4210 H       1  MOL1        0.0377
    564  H12       13.6550   12.2210   88.9330 H       1  MOL1        0.0377
    565  H12        6.1300    5.6630   95.7300 H       1  MOL1        0.0412
    566  H12        2.7550    6.6470   95.7760 H       1  MOL1        0.0341
    567  H12        3.8880    7.7110   94.9190 H       1  MOL1        0.0341
    568  H12        4.3920    6.9000   96.4470 H       1  MOL1        0.0341
    569  H12       19.8500   16.5110   86.8730 H       1  MOL1        0.0540
    570  H12       21.0580   17.8990   86.8410 H       1  MOL1        0.0540
    571  H12       22.9320   17.5740   84.9540 H       1  MOL1        0.0280
    572  H12       21.6740   18.2940   83.9280 H       1  MOL1        0.0280
    573  H12       22.4340   16.7580   83.4630 H       1  MOL1        0.0280
    574  H12       18.4370   14.3770   83.3780 H       1  MOL1        0.0735
    575  H12       19.2250   13.0440   84.1660 H       1  MOL1        0.0735
    576  H12       16.7190   13.7180   83.8350 H       1  MOL1        0.0765
    577  H12       15.5590   12.0350   85.1860 H       1  MOL1        0.0266
    578  H12       16.8030   12.0570   86.3180 H       1  MOL1        0.0266
    579  H12       17.0520   11.3730   84.6430 H       1  MOL1        0.0266
    580  H12       11.7120   17.0720   90.7250 H       1  MOL1        0.0421
    581  H12       11.4520   19.6770   90.9510 H       1  MOL1        0.0284
    582  H12       10.5410   18.5940   89.9840 H       1  MOL1        0.0284
    583  H12       12.3270   20.6730   89.0380 H       1  MOL1        0.0385
    584  H12       10.6170   20.6620   89.1270 H       1  MOL1        0.0385
    585  H12       12.9730   17.7830   88.2880 H       1  MOL1        0.0276
    586  H12       12.8700   16.2250   88.9910 H       1  MOL1        0.0276
    587  H12       15.1840   17.1690   90.2270 H       1  MOL1        0.0266
    588  H12       15.1410   17.9130   88.6340 H       1  MOL1        0.0266
    589  H12       14.4290   15.0000   88.8000 H       1  MOL1        0.0270
    590  H12       16.1270   15.4070   88.9640 H       1  MOL1        0.0270
    591  H12       15.9210   16.6380   86.6900 H       1  MOL1        0.0377
    592  H12       14.2130   16.1750   86.7530 H       1  MOL1        0.0377
    593  H12       11.0240   -0.8170   93.3130 H       1  MOL1        0.0540
    594  H12       11.8930    0.7160   93.7780 H       1  MOL1        0.0540
    595  H12       14.0170   -2.1490   91.6620 H       1  MOL1        0.0280
    596  H12       12.6660   -1.6490   90.6160 H       1  MOL1        0.0280
    597  H12       12.3370   -2.5330   92.0700 H       1  MOL1        0.0280
    598  H12       14.8170    2.6470   91.5710 H       1  MOL1        0.0735
    599  H12       13.1120    3.1840   91.5720 H       1  MOL1        0.0735
    600  H12       14.5190    3.3730   94.0130 H       1  MOL1        0.0765
    601  H12       15.8280    5.4760   93.6920 H       1  MOL1        0.0266
    602  H12       15.4590    5.5680   91.9940 H       1  MOL1        0.0266
    603  H12       16.4640    4.2680   92.5330 H       1  MOL1        0.0266
    604  H12        9.2560   10.3300   92.6130 H       1  MOL1        0.0421
    605  H12       10.4330   12.8400   93.6400 H       1  MOL1        0.0284
    606  H12        9.1900   12.9170   92.4040 H       1  MOL1        0.0284
    607  H12       10.8370   11.2170   91.1530 H       1  MOL1        0.0385
    608  H12       11.7730   11.3010   92.6070 H       1  MOL1        0.0385
    609  H12       10.1650   10.0710   95.2360 H       1  MOL1        0.0276
    610  H12       11.4100   10.8370   94.3800 H       1  MOL1        0.0276
    611  H12       10.7590    9.1160   92.4020 H       1  MOL1        0.0266
    612  H12       10.1250    8.2030   93.7670 H       1  MOL1        0.0266
    613  H12       12.6540    8.7340   94.5380 H       1  MOL1        0.0270
    614  H12       12.8620    8.7070   92.7660 H       1  MOL1        0.0270
    615  H12       11.3220    6.4310   93.9690 H       1  MOL1        0.0377
    616  H12       12.8400    6.6130   94.7880 H       1  MOL1        0.0377
    617  H12       24.4170    0.1950   74.0840 H       1  MOL1        0.0263
    618  H12       25.3420    1.1190   75.2510 H       1  MOL1        0.0263
    619  H12       23.7260    2.1890   73.0460 H       1  MOL1        0.0265
    620  H12       25.2050    3.0630   73.4770 H       1  MOL1        0.0265
    621  H12       24.5580    3.1750   75.8260 H       1  MOL1        0.0265
    622  H12       23.3630    1.9270   75.6260 H       1  MOL1        0.0265
    623  H12       21.9750    3.1520   74.2840 H       1  MOL1        0.0265
    624  H12       23.2300    4.4540   74.1620 H       1  MOL1        0.0265
    625  H12       22.9220    5.0270   76.4680 H       1  MOL1        0.0265
    626  H12       21.5850    3.9390   76.6050 H       1  MOL1        0.0265
    627  H12       20.3500    5.1180   74.7580 H       1  MOL1        0.0265
    628  H12       21.8020    5.8250   74.1770 H       1  MOL1        0.0265
    629  H12       19.9180    7.0750   75.5560 H       1  MOL1        0.0265
    630  H12       21.5150    7.6620   75.1930 H       1  MOL1        0.0265
    631  H12       21.8620    6.3800   77.7530 H       1  MOL1        0.0265
    632  H12       20.2820    7.1180   77.7720 H       1  MOL1        0.0265
    633  H12       21.4810    9.1620   76.7460 H       1  MOL1        0.0266
    634  H12       22.7390    8.4340   77.8700 H       1  MOL1        0.0266
    635  H12       20.6560    8.1790   79.3040 H       1  MOL1        0.0298
    636  H12       19.9470    9.4980   78.3450 H       1  MOL1        0.0298
    637  H12       21.0290   10.9210   79.7320 H       1  MOL1        0.0697
    638  H12       22.6070   10.1200   79.6690 H       1  MOL1        0.0697
    639  H12       26.2420   -0.2120   72.7990 H       1  MOL1        0.0230
    640  H12       26.6670   -0.3860   74.4650 H       1  MOL1        0.0230
    641  H12       27.2840    1.0100   73.5440 H       1  MOL1        0.0230
    642  H12       21.0420    8.3420   83.5390 H       1  MOL1        0.0411
    643  H12       20.9870    6.0720   82.4690 H       1  MOL1        0.0238
    644  H12       22.1850    7.1660   81.8810 H       1  MOL1        0.0238
    645  H12       20.8730    6.9460   80.8910 H       1  MOL1        0.0238
    646  H12       18.3450    7.3950   82.4060 H       1  MOL1        0.0273
    647  H12       18.5390    9.1170   82.7560 H       1  MOL1        0.0273
    648  H12       15.6670    7.9740   85.4690 H       1  MOL1        0.0240
    649  H12       15.4700    6.2630   85.8580 H       1  MOL1        0.0240
    650  H13       15.6380    6.7610   84.1490 H       1  MOL1        0.0240
@<TRIPOS>BOND
     1     1     3    2
     2     2     3    1
     3     2   285    1
     4     3     4    1
     5     4     5    1
     6     4   286    1
     7     4   287    1
     8     5     6    1
     9     5   288    1
    10     5   289    1
    11     6     7    1
    12     6   290    1
    13     6   291    1
    14     7    31    1
    15     7   292    1
    16     7   293    1
    17     8     9    1
    18     8    63    2
    19     9    10    1
    20     9   294    1
    21     9   295    1
    22    10    31    1
    23    10   296    1
    24    10   297    1
    25    11    12    1
    26    11    15    2
    27    11    16    1
    28    12    13    1
    29    12    14    1
    30    12    94    1
    31    13    93    1
    32    13   298    1
    33    13   299    1
    34    14   300    1
    35    14   301    1
    36    14   302    1
    37    16    17    1
    38    17    18    1
    39    17   303    1
    40    17   304    1
    41    18    19    1
    42    18    29    1
    43    18   305    1
    44    19   306    1
    45    19   307    1
    46    19   308    1
    47    20    21    1
    48    20    24    1
    49    20    75    1
    50    20   309    1
    51    21    22    1
    52    21   310    1
    53    21   311    1
    54    22    23    1
    55    22   312    1
    56    22   313    1
    57    23    53    1
    58    24    25    1
    59    24   314    1
    60    24   315    1
    61    25    26    1
    62    25   316    1
    63    25   317    1
    64    26    27    1
    65    26   318    1
    66    26   319    1
    67    27    28    1
    68    27   320    1
    69    27   321    1
    70    28    29    1
    71    28    30    2
    72    31   147    1
    73    31   322    1
    74    32    33    1
    75    32    36    2
    76    32    37    1
    77    33    34    2
    78    33    35    1
    79    34   323    1
    80    34   324    1
    81    35   325    1
    82    35   326    1
    83    35   327    1
    84    37    38    1
    85    38    39    1
    86    38   328    1
    87    38   329    1
    88    39    40    1
    89    39    50    1
    90    39   330    1
    91    40   331    1
    92    40   332    1
    93    40   333    1
    94    41    42    1
    95    41    45    1
    96    41    53    1
    97    41   334    1
    98    42    43    1
    99    42   335    1
   100    42   336    1
   101    43    44    1
   102    43   337    1
   103    43   338    1
   104    44    52    1
   105    45    46    1
   106    45   339    1
   107    45   340    1
   108    46    47    1
   109    46   341    1
   110    46   342    1
   111    47    48    1
   112    47   343    1
   113    47   344    1
   114    48    49    1
   115    48   345    1
   116    48   346    1
   117    49    50    1
   118    49    51    2
   119    52   347    1
   120    52   348    1
   121    52   349    1
   122    54    55    1
   123    54    58    2
   124    54    59    1
   125    55    56    2
   126    55    57    1
   127    56   350    1
   128    56   351    1
   129    57   352    1
   130    57   353    1
   131    57   354    1
   132    59    60    1
   133    60    61    1
   134    60   355    1
   135    60   356    1
   136    61    62    1
   137    61    73    1
   138    61   357    1
   139    62   358    1
   140    62   359    1
   141    62   360    1
   142    63    64    1
   143    64    65    1
   144    64    68    1
   145    64   361    1
   146    65    66    1
   147    65   362    1
   148    65   363    1
   149    66    67    1
   150    66   364    1
   151    66   365    1
   152    67    75    1
   153    68    69    1
   154    68   366    1
   155    68   367    1
   156    69    70    1
   157    69   368    1
   158    69   369    1
   159    70    71    1
   160    70   370    1
   161    70   371    1
   162    71    72    1
   163    71   372    1
   164    71   373    1
   165    72    73    1
   166    72    74    2
   167    76    77    1
   168    76    87    1
   169    76   374    1
   170    76   375    1
   171    77    78    1
   172    77   376    1
   173    77   377    1
   174    78    79    1
   175    78   378    1
   176    78   379    1
   177    79    80    1
   178    79   380    1
   179    79   381    1
   180    80    81    1
   181    80   382    1
   182    80   383    1
   183    81    82    1
   184    81   384    1
   185    81   385    1
   186    82    83    1
   187    82   386    1
   188    82   387    1
   189    83    84    1
   190    83   388    1
   191    83   389    1
   192    84    85    1
   193    84   390    1
   194    84   391    1
   195    85    86    1
   196    85   392    1
   197    85   393    1
   198    86    90    1
   199    86   394    1
   200    86   395    1
   201    87   396    1
   202    87   397    1
   203    87   398    1
   204    88    89    1
   205    88    92    1
   206    88    93    1
   207    88   399    1
   208    89    90    1
   209    89    91    2
   210    92   400    1
   211    92   401    1
   212    92   402    1
   213    93   403    1
   214    93   404    1
   215    94   405    1
   216    94   406    1
   217    94   407    1
   218    95    97    2
   219    96    97    1
   220    96   408    1
   221    97    98    1
   222    98    99    1
   223    98   409    1
   224    98   410    1
   225    99   100    1
   226    99   411    1
   227    99   412    1
   228   100   101    1
   229   100   413    1
   230   100   414    1
   231   101   126    1
   232   101   415    1
   233   101   416    1
   234   102   103    1
   235   102   158    1
   236   103   104    1
   237   103   417    1
   238   103   418    1
   239   104   126    1
   240   104   419    1
   241   104   420    1
   242   105   106    1
   243   105   109    2
   244   105   110    1
   245   106   107    1
   246   106   108    1
   247   106   189    1
   248   107   188    1
   249   107   421    1
   250   107   422    1
   251   108   423    1
   252   108   424    1
   253   108   425    1
   254   110   111    1
   255   111   112    1
   256   111   426    1
   257   111   427    1
   258   112   113    1
   259   112   123    1
   260   112   428    1
   261   113   429    1
   262   113   430    1
   263   113   431    1
   264   114   115    1
   265   114   118    1
   266   114   170    1
   267   114   432    1
   268   115   116    1
   269   115   433    1
   270   115   434    1
   271   116   117    1
   272   116   435    1
   273   116   436    1
   274   117   148    1
   275   118   119    1
   276   118   437    1
   277   118   438    1
   278   119   120    1
   279   119   439    1
   280   119   440    1
   281   120   121    1
   282   120   441    1
   283   120   442    1
   284   121   122    1
   285   121   443    1
   286   121   444    1
   287   122   123    1
   288   122   124    2
   289   125   126    1
   290   125   235    1
   291   126   445    1
   292   127   128    1
   293   127   131    2
   294   127   132    1
   295   128   129    2
   296   128   130    1
   297   129   446    1
   298   129   447    1
   299   130   448    1
   300   130   449    1
   301   130   450    1
   302   132   133    1
   303   133   134    1
   304   133   451    1
   305   133   452    1
   306   134   135    1
   307   134   145    1
   308   134   453    1
   309   135   454    1
   310   135   455    1
   311   135   456    1
   312   136   137    1
   313   136   140    1
   314   136   148    1
   315   136   457    1
   316   137   138    1
   317   137   458    1
   318   137   459    1
   319   138   139    1
   320   138   460    1
   321   138   461    1
   322   139   147    1
   323   140   141    1
   324   140   462    1
   325   140   463    1
   326   141   142    1
   327   141   464    1
   328   141   465    1
   329   142   143    1
   330   142   466    1
   331   142   467    1
   332   143   144    1
   333   143   468    1
   334   143   469    1
   335   144   145    1
   336   144   146    2
   337   149   150    1
   338   149   153    2
   339   149   154    1
   340   150   151    2
   341   150   152    1
   342   151   470    1
   343   151   471    1
   344   152   472    1
   345   152   473    1
   346   152   474    1
   347   154   155    1
   348   155   156    1
   349   155   475    1
   350   155   476    1
   351   156   157    1
   352   156   168    1
   353   156   477    1
   354   157   478    1
   355   157   479    1
   356   157   480    1
   357   158   159    1
   358   159   160    1
   359   159   163    1
   360   159   481    1
   361   160   161    1
   362   160   482    1
   363   160   483    1
   364   161   162    1
   365   161   484    1
   366   161   485    1
   367   162   170    2
   368   163   164    1
   369   163   486    1
   370   163   487    1
   371   164   165    1
   372   164   488    1
   373   164   489    1
   374   165   166    1
   375   165   490    1
   376   165   491    1
   377   166   167    1
   378   166   492    1
   379   166   493    1
   380   167   168    1
   381   167   169    2
   382   171   172    1
   383   171   182    1
   384   171   494    1
   385   171   495    1
   386   172   173    1
   387   172   496    1
   388   172   497    1
   389   173   174    1
   390   173   498    1
   391   173   499    1
   392   174   175    1
   393   174   500    1
   394   174   501    1
   395   175   176    1
   396   175   502    1
   397   175   503    1
   398   176   177    1
   399   176   504    1
   400   176   505    1
   401   177   178    1
   402   177   506    1
   403   177   507    1
   404   178   179    1
   405   178   508    1
   406   178   509    1
   407   179   180    1
   408   179   510    1
   409   179   511    1
   410   180   181    1
   411   180   512    1
   412   180   513    1
   413   181   185    1
   414   181   514    1
   415   181   515    1
   416   182   516    1
   417   182   517    1
   418   182   518    1
   419   183   184    1
   420   183   187    1
   421   183   188    1
   422   183   519    1
   423   184   185    1
   424   184   186    2
   425   187   520    1
   426   187   521    1
   427   187   522    1
   428   188   523    1
   429   188   524    1
   430   189   525    1
   431   189   526    1
   432   189   527    1
   433   190   192    2
   434   191   192    1
   435   191   528    1
   436   192   193    1
   437   193   194    1
   438   193   529    1
   439   193   530    1
   440   194   195    1
   441   194   531    1
   442   194   532    1
   443   195   196    1
   444   195   533    1
   445   195   534    1
   446   196   221    1
   447   196   535    1
   448   196   536    1
   449   197   198    1
   450   197   253    1
   451   198   199    1
   452   198   537    1
   453   198   538    1
   454   199   221    1
   455   199   539    1
   456   199   540    1
   457   200   201    1
   458   200   204    2
   459   200   205    1
   460   201   202    1
   461   201   203    1
   462   201   284    1
   463   202   283    1
   464   202   541    1
   465   202   542    1
   466   203   543    1
   467   203   544    1
   468   203   545    1
   469   205   206    1
   470   206   207    1
   471   206   546    1
   472   206   547    1
   473   207   208    1
   474   207   218    1
   475   207   548    1
   476   208   549    1
   477   208   550    1
   478   208   551    1
   479   209   210    1
   480   209   213    1
   481   209   265    1
   482   209   552    1
   483   210   211    1
   484   210   553    1
   485   210   554    1
   486   211   212    1
   487   211   555    1
   488   211   556    1
   489   212   243    1
   490   213   214    1
   491   213   557    1
   492   213   558    1
   493   214   215    1
   494   214   559    1
   495   214   560    1
   496   215   216    1
   497   215   561    1
   498   215   562    1
   499   216   217    1
   500   216   563    1
   501   216   564    1
   502   217   218    1
   503   217   219    2
   504   220   221    1
   505   220   222    1
   506   221   565    1
   507   222   566    1
   508   222   567    1
   509   222   568    1
   510   223   224    1
   511   223   227    2
   512   223   228    1
   513   224   225    2
   514   224   226    1
   515   225   569    1
   516   225   570    1
   517   226   571    1
   518   226   572    1
   519   226   573    1
   520   228   229    1
   521   229   230    1
   522   229   574    1
   523   229   575    1
   524   230   231    1
   525   230   241    1
   526   230   576    1
   527   231   577    1
   528   231   578    1
   529   231   579    1
   530   232   233    1
   531   232   236    1
   532   232   243    1
   533   232   580    1
   534   233   234    1
   535   233   581    1
   536   233   582    1
   537   234   235    1
   538   234   583    1
   539   234   584    1
   540   236   237    1
   541   236   585    1
   542   236   586    1
   543   237   238    1
   544   237   587    1
   545   237   588    1
   546   238   239    1
   547   238   589    1
   548   238   590    1
   549   239   240    1
   550   239   591    1
   551   239   592    1
   552   240   241    1
   553   240   242    2
   554   244   245    1
   555   244   248    2
   556   244   249    1
   557   245   246    2
   558   245   247    1
   559   246   593    1
   560   246   594    1
   561   247   595    1
   562   247   596    1
   563   247   597    1
   564   249   250    1
   565   250   251    1
   566   250   598    1
   567   250   599    1
   568   251   252    1
   569   251   263    1
   570   251   600    1
   571   252   601    1
   572   252   602    1
   573   252   603    1
   574   253   254    1
   575   254   255    1
   576   254   258    1
   577   254   604    1
   578   255   256    1
   579   255   605    1
   580   255   606    1
   581   256   257    1
   582   256   607    1
   583   256   608    1
   584   257   265    1
   585   258   259    1
   586   258   609    1
   587   258   610    1
   588   259   260    1
   589   259   611    1
   590   259   612    1
   591   260   261    1
   592   260   613    1
   593   260   614    1
   594   261   262    1
   595   261   615    1
   596   261   616    1
   597   262   263    1
   598   262   264    2
   599   266   267    1
   600   266   277    1
   601   266   617    1
   602   266   618    1
   603   267   268    1
   604   267   619    1
   605   267   620    1
   606   268   269    1
   607   268   621    1
   608   268   622    1
   609   269   270    1
   610   269   623    1
   611   269   624    1
   612   270   271    1
   613   270   625    1
   614   270   626    1
   615   271   272    1
   616   271   627    1
   617   271   628    1
   618   272   273    1
   619   272   629    1
   620   272   630    1
   621   273   274    1
   622   273   631    1
   623   273   632    1
   624   274   275    1
   625   274   633    1
   626   274   634    1
   627   275   276    1
   628   275   635    1
   629   275   636    1
   630   276   280    1
   631   276   637    1
   632   276   638    1
   633   277   639    1
   634   277   640    1
   635   277   641    1
   636   278   279    1
   637   278   282    1
   638   278   283    1
   639   278   642    1
   640   279   280    1
   641   279   281    2
   642   282   643    1
   643   282   644    1
   644   282   645    1
   645   283   646    1
   646   283   647    1
   647   284   648    1
   648   284   649    1
   649   284   650    1
