
     RDKit          3D

102103  0  0  0  0  0  0  0  0999 V2000
   -4.8891    1.3949    1.3840 C   0  0  0  0  0  0  0  0  0  0  0  0
   -3.9121    1.7639    2.4256 C   0  0  0  0  0  0  0  0  0  0  0  0
   -4.1672    1.2545    3.8114 C   0  0  0  0  0  0  0  0  0  0  0  0
   -2.4940    1.5240    2.0107 C   0  0  0  0  0  0  0  0  0  0  0  0
   -2.0195    0.2341    1.9497 C   0  0  0  0  0  0  0  0  0  0  0  0
   -0.7083   -0.0231    1.5667 C   0  0  0  0  0  0  0  0  0  0  0  0
    0.1786    0.9780    1.2306 C   0  0  0  0  0  0  0  0  0  0  0  0
   -0.3226    2.2727    1.3020 C   0  0  0  0  0  0  0  0  0  0  0  0
   -1.6266    2.5382    1.6820 C   0  0  0  0  0  0  0  0  0  0  0  0
    0.4607    3.3820    1.0288 C   0  0  0  0  0  0  0  0  0  0  0  0
    1.7670    3.1354    0.6825 C   0  0  0  0  0  0  0  0  0  0  0  0
    2.2688    1.8463    0.6093 C   0  0  0  0  0  0  0  0  0  0  0  0
    1.5003    0.7198    0.8752 C   0  0  0  0  0  0  0  0  0  0  0  0
    1.9968   -0.6548    0.7817 C   0  0  0  0  0  0  0  0  0  0  0  0
    3.4149   -0.7878    0.2979 C   0  0  0  0  0  0  0  0  0  0  0  0
    3.7370   -0.3288   -1.0671 C   0  0  0  0  0  0  0  0  0  0  0  0
    5.2643   -0.5187   -1.2622 C   0  0  0  0  0  0  0  0  0  0  0  0
    5.6803   -1.9409   -1.1157 C   0  0  0  0  0  0  0  0  0  0  0  0
    7.1964   -2.0435   -1.3212 C   0  0  0  0  0  0  0  0  0  0  0  0
    7.9148   -1.2157   -0.3042 C   0  0  0  0  0  0  0  0  0  0  0  0
    9.4225   -1.3510   -0.5130 C   0  0  0  0  0  0  0  0  0  0  0  0
   10.1991   -0.5619    0.4575 C   0  0  0  0  0  0  0  0  0  0  0  0
   10.0443    0.8656    0.6463 C   0  0  0  0  0  0  0  0  0  0  0  0
   10.2934    1.9521   -0.2707 C   0  0  0  0  0  0  0  0  0  0  0  0
    9.5488    2.0867   -1.5167 C   0  0  0  0  0  0  0  0  0  0  0  0
    9.7083    1.0657   -2.5733 C   0  0  0  0  0  0  0  0  0  0  0  0
    1.1664   -1.4868   -0.2131 C   0  0  0  0  0  0  0  0  0  0  0  0
   -5.1317   -0.0035    1.0090 C   0  0  0  0  0  0  0  0  0  0  0  0
   -5.6214   -0.9697    2.0154 C   0  0  0  0  0  0  0  0  0  0  0  0
   -5.8459   -2.3673    1.4757 C   0  0  0  0  0  0  0  0  0  0  0  0
   -6.8673   -2.3302    0.3486 C   0  0  0  0  0  0  0  0  0  0  0  0
   -8.2045   -1.8075    0.7619 C   0  0  0  0  0  0  0  0  0  0  0  0
   -9.2565   -1.7998   -0.2505 C   0  0  0  0  0  0  0  0  0  0  0  0
   -9.2304   -1.0374   -1.4905 C   0  0  0  0  0  0  0  0  0  0  0  0
   -8.2176   -1.2134   -2.5287 C   0  0  0  0  0  0  0  0  0  0  0  0
   -8.5408   -0.3165   -3.7379 C   0  0  0  0  0  0  0  0  0  0  0  0
   -8.5457    1.1208   -3.3158 C   0  0  0  0  0  0  0  0  0  0  0  0
   -7.2108    1.5463   -2.7280 C   0  0  0  0  0  0  0  0  0  0  0  0
   -4.6234    1.9703    0.4325 H   0  0  0  0  0  0  0  0  0  0  0  0
   -5.8634    1.9225    1.6774 H   0  0  0  0  0  0  0  0  0  0  0  0
   -3.9834    2.9021    2.5037 H   0  0  0  0  0  0  0  0  0  0  0  0
   -3.5734    0.3773    4.1097 H   0  0  0  0  0  0  0  0  0  0  0  0
   -3.9918    2.1009    4.5523 H   0  0  0  0  0  0  0  0  0  0  0  0
   -5.2399    1.0029    3.9025 H   0  0  0  0  0  0  0  0  0  0  0  0
   -2.6470   -0.5984    2.2011 H   0  0  0  0  0  0  0  0  0  0  0  0
   -0.4012   -1.0330    1.5710 H   0  0  0  0  0  0  0  0  0  0  0  0
   -2.0001    3.5561    1.7317 H   0  0  0  0  0  0  0  0  0  0  0  0
    0.1014    4.3800    1.0753 H   0  0  0  0  0  0  0  0  0  0  0  0
    2.3899    3.9915    0.4681 H   0  0  0  0  0  0  0  0  0  0  0  0
    3.3232    1.7839    0.3692 H   0  0  0  0  0  0  0  0  0  0  0  0
    1.9804   -1.1799    1.7824 H   0  0  0  0  0  0  0  0  0  0  0  0
    4.1457   -0.4332    1.0701 H   0  0  0  0  0  0  0  0  0  0  0  0
    3.6013   -1.9142    0.3021 H   0  0  0  0  0  0  0  0  0  0  0  0
    3.3364   -1.0622   -1.8606 H   0  0  0  0  0  0  0  0  0  0  0  0
    3.4278    0.6260   -1.4335 H   0  0  0  0  0  0  0  0  0  0  0  0
    5.6873    0.0523   -0.3835 H   0  0  0  0  0  0  0  0  0  0  0  0
    5.6269   -0.0247   -2.1614 H   0  0  0  0  0  0  0  0  0  0  0  0
    5.5330   -2.3119   -0.0583 H   0  0  0  0  0  0  0  0  0  0  0  0
    5.1445   -2.6326   -1.7692 H   0  0  0  0  0  0  0  0  0  0  0  0
    7.4481   -1.6637   -2.3294 H   0  0  0  0  0  0  0  0  0  0  0  0
    7.4945   -3.1001   -1.1715 H   0  0  0  0  0  0  0  0  0  0  0  0
    7.7097   -1.5408    0.7330 H   0  0  0  0  0  0  0  0  0  0  0  0
    7.7013   -0.1370   -0.4755 H   0  0  0  0  0  0  0  0  0  0  0  0
    9.5669   -2.4800   -0.1583 H   0  0  0  0  0  0  0  0  0  0  0  0
    9.7641   -1.4184   -1.5184 H   0  0  0  0  0  0  0  0  0  0  0  0
   11.3280   -0.8248    0.3605 H   0  0  0  0  0  0  0  0  0  0  0  0
   10.0137   -1.0323    1.5037 H   0  0  0  0  0  0  0  0  0  0  0  0
    8.9216    1.0138    0.9882 H   0  0  0  0  0  0  0  0  0  0  0  0
   10.6128    1.1599    1.6309 H   0  0  0  0  0  0  0  0  0  0  0  0
   11.4311    2.0996   -0.4568 H   0  0  0  0  0  0  0  0  0  0  0  0
   10.1125    2.9466    0.3114 H   0  0  0  0  0  0  0  0  0  0  0  0
    8.4391    2.1976   -1.2454 H   0  0  0  0  0  0  0  0  0  0  0  0
    9.7415    3.1215   -1.9755 H   0  0  0  0  0  0  0  0  0  0  0  0
   10.6603    0.4845   -2.4715 H   0  0  0  0  0  0  0  0  0  0  0  0
    9.8349    1.5520   -3.5998 H   0  0  0  0  0  0  0  0  0  0  0  0
    8.8586    0.3816   -2.7231 H   0  0  0  0  0  0  0  0  0  0  0  0
    1.8036   -1.8706   -1.0597 H   0  0  0  0  0  0  0  0  0  0  0  0
    0.7808   -2.4273    0.2536 H   0  0  0  0  0  0  0  0  0  0  0  0
    0.3152   -0.9344   -0.6264 H   0  0  0  0  0  0  0  0  0  0  0  0
   -5.9056    0.0451    0.1588 H   0  0  0  0  0  0  0  0  0  0  0  0
   -4.2358   -0.3927    0.4569 H   0  0  0  0  0  0  0  0  0  0  0  0
   -6.5525   -0.6194    2.4792 H   0  0  0  0  0  0  0  0  0  0  0  0
   -4.8888   -1.0311    2.8702 H   0  0  0  0  0  0  0  0  0  0  0  0
   -4.9378   -2.8971    1.1985 H   0  0  0  0  0  0  0  0  0  0  0  0
   -6.3623   -2.9133    2.3171 H   0  0  0  0  0  0  0  0  0  0  0  0
   -6.3637   -1.8040   -0.4616 H   0  0  0  0  0  0  0  0  0  0  0  0
   -6.9492   -3.4267    0.0371 H   0  0  0  0  0  0  0  0  0  0  0  0
   -8.5664   -2.5122    1.5859 H   0  0  0  0  0  0  0  0  0  0  0  0
   -8.1209   -0.8411    1.3295 H   0  0  0  0  0  0  0  0  0  0  0  0
  -10.2137   -1.4687    0.3013 H   0  0  0  0  0  0  0  0  0  0  0  0
   -9.5278   -2.9049   -0.4282 H   0  0  0  0  0  0  0  0  0  0  0  0
   -9.3293    0.0827   -1.2500 H   0  0  0  0  0  0  0  0  0  0  0  0
  -10.2394   -1.2156   -2.0009 H   0  0  0  0  0  0  0  0  0  0  0  0
   -8.1582   -2.2562   -2.8981 H   0  0  0  0  0  0  0  0  0  0  0  0
   -7.1743   -0.9151   -2.2949 H   0  0  0  0  0  0  0  0  0  0  0  0
   -7.6818   -0.4313   -4.4520 H   0  0  0  0  0  0  0  0  0  0  0  0
   -9.4818   -0.6310   -4.2140 H   0  0  0  0  0  0  0  0  0  0  0  0
   -8.7207    1.7237   -4.2700 H   0  0  0  0  0  0  0  0  0  0  0  0
   -9.3343    1.4280   -2.6428 H   0  0  0  0  0  0  0  0  0  0  0  0
   -7.2851    2.6529   -2.5519 H   0  0  0  0  0  0  0  0  0  0  0  0
   -7.0818    1.1025   -1.7210 H   0  0  0  0  0  0  0  0  0  0  0  0
   -6.3524    1.2991   -3.3681 H   0  0  0  0  0  0  0  0  0  0  0  0
  1  2  1  0
  2  3  1  0
  2  4  1  0
  4  5  2  0
  5  6  1  0
  6  7  2  0
  7  8  1  0
  8  9  2  0
  8 10  1  0
 10 11  2  0
 11 12  1  0
 12 13  2  0
 13 14  1  0
 14 15  1  0
 15 16  1  0
 16 17  1  0
 17 18  1  0
 18 19  1  0
 19 20  1  0
 20 21  1  0
 21 22  1  0
 22 23  1  0
 23 24  1  0
 24 25  1  0
 25 26  1  0
 14 27  1  0
  1 28  1  0
 28 29  1  0
 29 30  1  0
 30 31  1  0
 31 32  1  0
 32 33  1  0
 33 34  1  0
 34 35  1  0
 35 36  1  0
 36 37  1  0
 37 38  1  0
  9  4  1  0
 13  7  1  0
  1 39  1  0
  1 40  1  0
  2 41  1  0
  3 42  1  0
  3 43  1  0
  3 44  1  0
  5 45  1  0
  6 46  1  0
  9 47  1  0
 10 48  1  0
 11 49  1  0
 12 50  1  0
 14 51  1  0
 15 52  1  0
 15 53  1  0
 16 54  1  0
 16 55  1  0
 17 56  1  0
 17 57  1  0
 18 58  1  0
 18 59  1  0
 19 60  1  0
 19 61  1  0
 20 62  1  0
 20 63  1  0
 21 64  1  0
 21 65  1  0
 22 66  1  0
 22 67  1  0
 23 68  1  0
 23 69  1  0
 24 70  1  0
 24 71  1  0
 25 72  1  0
 25 73  1  0
 26 74  1  0
 26 75  1  0
 26 76  1  0
 27 77  1  0
 27 78  1  0
 27 79  1  0
 28 80  1  0
 28 81  1  0
 29 82  1  0
 29 83  1  0
 30 84  1  0
 30 85  1  0
 31 86  1  0
 31 87  1  0
 32 88  1  0
 32 89  1  0
 33 90  1  0
 33 91  1  0
 34 92  1  0
 34 93  1  0
 35 94  1  0
 35 95  1  0
 36 96  1  0
 36 97  1  0
 37 98  1  0
 37 99  1  0
 38100  1  0
 38101  1  0
 38102  1  0
M  END
