@<TRIPOS>MOLECULE
water.pdb
 3 2 0 0 0
SMALL
GASTEIGER

@<TRIPOS>ATOM
      1    O       -0.0060    0.3850   -0.0000 O.3     1  MOL1       -0.4105
      2    H       -0.7960   -0.1950   -0.0000 H       1  MOL1        0.2052
      3    H        0.8020   -0.1910    0.0000 H       1  MOL1        0.2052
@<TRIPOS>BOND
     1     1     2    1
     2     1     3    1
